Circuit: * SPICE3 file created from 3BitDac.ext - technology: scmos

