Circuit: * D:\DAC\DAC\Potentiometric DAC different kind of switch - koi matlab ka nahi hai ye wala- ---- par ab hai. chota switch, no resizing, ek resistor uda diya, output best abhi tak ka - alag try naya 1236 - Copy\3-bit-dac\3_bit_dac.asc

Ignoring BSIM parameter XL
Ignoring BSIM parameter XW
Ignoring BSIM parameter XL
Ignoring BSIM parameter XW
Warning: Pd = 0 is less than W.
Warning: Ps = 0 is less than W.
Warning: Pd = 0 is less than W.
Warning: Ps = 0 is less than W.
Direct Newton iteration for .op point succeeded.
Heightened Def Con from 0.0001 to 0.0001
Heightened Def Con from 0.0002 to 0.0002
Heightened Def Con from 0.0002 to 0.000200003
Heightened Def Con from 0.0003 to 0.000300001
Heightened Def Con from 0.000300002 to 0.000300013
Heightened Def Con from 0.0004 to 0.0004
Heightened Def Con from 0.0004 to 0.000400002
Heightened Def Con from 0.0005 to 0.000500015
Heightened Def Con from 0.0006 to 0.000600012
Heightened Def Con from 0.0007 +++++++++++++++++to 0.000700001
Heightened Def Con from 0.000700002 to 0.000700013
Heightened Def Con from 0.0008 to 0.0008
Heightened Def Con from 0.0008 +++++++++++++++++++++++++++to 0.000800009
Heightened Def Con from 0.0009 to 0.000900014
Heightened Def Con from 0.001 to 0.001
Heightened Def Con from 0.0011 to 0.0011
Heightened Def Con from 0.0011 to 0.00110001
Heightened Def Con from 0.0012 to 0.0012
Heightened Def Con from 0.0012 to 0.00120001
Heightened Def Con from 0.0013 to 0.00130002
Heightened Def Con from 0.0014 to 0.00140001
Heightened Def Con from 0.0015 +++++++++++++++++to 0.0015
Heightened Def Con from 0.0015 to 0.00150001

Date: Wed Aug 19 16:19:04 2020
Total elapsed time: 0.411 seconds.

tnom = 27
temp = 27
method = modified trap
totiter = 22467
traniter = 22453
tranpoints = 5074
accept = 3646
rejected = 1512
matrix size = 43
fillins = 22
solver = Normal
Thread vector: 15.3/9.9[2] 2.8/2.5[2] 0.9/1.2[1] 0.2/1.2[1]  2592/500
Matrix Compiler1: 4.49 KB object code size  0.8/0.5/[0.2]
Matrix Compiler2: 4.23 KB object code size  0.3/0.5/[0.3]

