Circuit: * C:\Users\ashut\Desktop\DAC\work\Potentiometric DAC\6-bit-dac\6_bit_dac.asc

Ignoring BSIM parameter XL
Ignoring BSIM parameter XW
Ignoring BSIM parameter XL
Ignoring BSIM parameter XW
Limiting rise time of source v§d6 to 0.0032
Limiting fall time of source v§d6 to 0.0032
Limiting rise time of source v§d5 to 0.0016
Limiting fall time of source v§d5 to 0.0016
Limiting rise time of source v§d4 to 0.0004
Limiting fall time of source v§d4 to 0.0004
Limiting rise time of source v§d3 to 0.0008
Limiting fall time of source v§d3 to 0.0008
Limiting rise time of source v§d2 to 0.0002
Limiting fall time of source v§d2 to 0.0002
Limiting rise time of source v§d1 to 0.0001
Limiting fall time of source v§d1 to 0.0001
Warning: Pd = 0 is less than W.
Warning: Ps = 0 is less than W.
Warning: Pd = 0 is less than W.
Warning: Ps = 0 is less than W.
Direct Newton iteration for .op point succeeded.

Date: Sun Jul 26 14:10:24 2020
Total elapsed time: 3.167 seconds.

tnom = 27
temp = 27
method = modified trap
totiter = 13181
traniter = 13168
tranpoints = 6462
accept = 5081
rejected = 1381
matrix size = 344
fillins = 576
solver = Normal
Thread vector: 309.6/173.8[8] 121.2/21.2[8] 32.4/15.5[8] 3.8/6.8[1]  2592/500
Matrix Compiler1: 71.41 KB object code size  57.7/31.3/[10.0]
Matrix Compiler2: 49.44 KB object code size  19.5/21.7/[4.0]

