Circuit: * C:\Users\ashut\Desktop\DAC\work\Potentiometric DAC\7-bit-dac\7_bit_dac.asc

Ignoring BSIM parameter XL
Ignoring BSIM parameter XW
Ignoring BSIM parameter XL
Ignoring BSIM parameter XW
Limiting rise time of source v§d5 to 0.0032
Limiting fall time of source v§d5 to 0.0032
Limiting rise time of source v§d6 to 0.0064
Limiting fall time of source v§d6 to 0.0064
Limiting rise time of source v§d4 to 0.0016
Limiting fall time of source v§d4 to 0.0016
Limiting rise time of source v§d2 to 0.0004
Limiting fall time of source v§d2 to 0.0004
Limiting rise time of source v§d3 to 0.0008
Limiting fall time of source v§d3 to 0.0008
Limiting rise time of source v§d1 to 0.0002
Limiting fall time of source v§d1 to 0.0002
Limiting rise time of source v§d0 to 0.0001
Limiting fall time of source v§d0 to 0.0001
Warning: Pd = 0 is less than W.
Warning: Ps = 0 is less than W.
Warning: Pd = 0 is less than W.
Warning: Ps = 0 is less than W.
Direct Newton iteration for .op point succeeded.

Date: Sun Jul 26 14:43:56 2020
Total elapsed time: 5.122 seconds.

tnom = 27
temp = 27
method = modified trap
totiter = 12456
traniter = 12443
tranpoints = 6092
accept = 5257
rejected = 835
matrix size = 682
fillins = 1262
solver = Normal
Thread vector: 886.2/343.4[8] 344.3/47.5[8] 94.3/32.7[8] 12.1/8.0[7]  2592/500
Matrix Compiler1: 151.78 KB object code size  129.5/75.6/[35.1]
Matrix Compiler2: 101.04 KB object code size  49.6/64.2/[13.8]

