Circuit: * C:\Users\ashut\Desktop\DAC\Potentiometric DAC different kind of switch - koi matlab ka nahi hai ye wala- ---- par ab hai. chota switch, no resizing, ek resistor uda diya, output best abhi tak ka - alag try naya 1236 - Copy\10-bit-dac\10_bit_dac.asc

Ignoring BSIM parameter XL
Ignoring BSIM parameter XW
Ignoring BSIM parameter XL
Ignoring BSIM parameter XW
Warning: Pd = 0 is less than W.
Warning: Ps = 0 is less than W.
Warning: Pd = 0 is less than W.
Warning: Ps = 0 is less than W.
Direct Newton iteration for .op point succeeded.
Heightened Def Con from 0.002 ++++++++++++++++++++++++++++++++to 0.002
Heightened Def Con from 0.002 to 0.002
Heightened Def Con from 0.002 to 0.00200002
Heightened Def Con from 0.00300001 to 0.00300001
Heightened Def Con from 0.004 +++++++++++++++++++++++++++++++to 0.004
Heightened Def Con from 0.004 to 0.004
Heightened Def Con from 0.004 ++++++++++++++++++++++++++++to 0.00400001
Heightened Def Con from 0.00400001 to 0.00400001
Heightened Def Con from 0.00400001 to 0.00400001
Heightened Def Con from 0.00400001 to 0.00400002
Heightened Def Con from 0.005 to 0.005
Heightened Def Con from 0.005 to 0.005
Heightened Def Con from 0.005 to 0.00500001
Heightened Def Con from 0.006 to 0.006
Heightened Def Con from 0.006 to 0.006
Heightened Def Con from 0.006 to 0.00600002
Heightened Def Con from 0.007 to 0.007
Heightened Def Con from 0.007 to 0.007
Heightened Def Con from 0.007 to 0.00700001
Heightened Def Con from 0.008 +++++++++++++++++++++++++++++++++to 0.008
Heightened Def Con from 0.008 to 0.008
Heightened Def Con from 0.008 to 0.00800001
Heightened Def Con from 0.00800001 to 0.00800002
Heightened Def Con from 0.009 to 0.00900002
Heightened Def Con from 0.01 to 0.01
Heightened Def Con from 0.01 to 0.01
Heightened Def Con from 0.01 to 0.01
Heightened Def Con from 0.011 to 0.011
Heightened Def Con from 0.011 to 0.011
Heightened Def Con from 0.011 to 0.011
Heightened Def Con from 0.012 to 0.012
Heightened Def Con from 0.012 to 0.012
Heightened Def Con from 0.013 to 0.013
Heightened Def Con from 0.013 to 0.013
Heightened Def Con from 0.013 to 0.013
Heightened Def Con from 0.013 to 0.013
Heightened Def Con from 0.014 to 0.014
Heightened Def Con from 0.014 to 0.014
Heightened Def Con from 0.014 to 0.014
Heightened Def Con from 0.015 to 0.015
Heightened Def Con from 0.015 to 0.015
Heightened Def Con from 0.015 to 0.015
Heightened Def Con from 0.016 +++++++++++++++++++++++++++++++to 0.016
Heightened Def Con from 0.016 ++++++++++++++++++++++++++++to 0.016
Heightened Def Con from 0.016 to 0.016
Heightened Def Con from 0.016 to 0.016
Heightened Def Con from 0.017 to 0.017
Heightened Def Con from 0.017 to 0.017
Heightened Def Con from 0.018 to 0.018
Heightened Def Con from 0.018 to 0.018
Heightened Def Con from 0.019 to 0.019
Heightened Def Con from 0.019 to 0.019
Heightened Def Con from 0.019 to 0.019
Heightened Def Con from 0.02 +++++++++++++++++++++++to 0.02
Heightened Def Con from 0.02 to 0.02
Heightened Def Con from 0.021 to 0.021
Heightened Def Con from 0.021 to 0.021
Heightened Def Con from 0.021 to 0.021
Heightened Def Con from 0.022 to 0.022
Heightened Def Con from 0.022 +++++++++++++++++++++++to 0.022
Heightened Def Con from 0.022 to 0.022
Heightened Def Con from 0.023 to 0.023
Heightened Def Con from 0.023 to 0.023
Heightened Def Con from 0.023 to 0.023
Heightened Def Con from 0.023 to 0.023
Heightened Def Con from 0.023 to 0.023
Heightened Def Con from 0.024 +++++++++++++++++++++++to 0.024
Heightened Def Con from 0.024 to 0.024
Heightened Def Con from 0.025 to 0.025
Heightened Def Con from 0.026 to 0.026
Heightened Def Con from 0.026 to 0.026
Heightened Def Con from 0.026 to 0.026
Heightened Def Con from 0.027 to 0.027
Heightened Def Con from 0.027 to 0.027
Heightened Def Con from 0.027 to 0.027
Heightened Def Con from 0.028 ++++++++++++++++++++++++to 0.028
Heightened Def Con from 0.028 to 0.028
Heightened Def Con from 0.029 to 0.029
Heightened Def Con from 0.029 to 0.029
Heightened Def Con from 0.029 to 0.029
Heightened Def Con from 0.03 to 0.03
Heightened Def Con from 0.03 to 0.03
Heightened Def Con from 0.03 to 0.03
Heightened Def Con from 0.031 to 0.031
Heightened Def Con from 0.031 to 0.031
Heightened Def Con from 0.031 to 0.031
Heightened Def Con from 0.0310001 to 0.0310001
Heightened Def Con from 0.032 ++++++++++++++++++++++++++++++to 0.032
Heightened Def Con from 0.032 to 0.032
Heightened Def Con from 0.032 to 0.032
Heightened Def Con from 0.032 to 0.032
Heightened Def Con from 0.032 to 0.032
Heightened Def Con from 0.0320002 to 0.0320002
Heightened Def Con from 0.033 to 0.033
Heightened Def Con from 0.034 ++++++++++++++++++++to 0.034
Heightened Def Con from 0.034 +++++++++++++++++++to 0.034
Heightened Def Con from 0.034 +++++++++++++++++++to 0.034
Heightened Def Con from 0.034 ++++++++++++++++++++to 0.034
Heightened Def Con from 0.034 ++++++++++++++++++++++to 0.034
Heightened Def Con from 0.034 to 0.034
Heightened Def Con from 0.035 to 0.035
Heightened Def Con from 0.035 to 0.035
Heightened Def Con from 0.035 to 0.035
Heightened Def Con from 0.036 +++++++++++++++++++++++to 0.036
Heightened Def Con from 0.036 to 0.036
Heightened Def Con from 0.037 to 0.037
Heightened Def Con from 0.037 to 0.037
Heightened Def Con from 0.038 to 0.038
Heightened Def Con from 0.038 to 0.038
Heightened Def Con from 0.038 to 0.038
Heightened Def Con from 0.039 to 0.039
Heightened Def Con from 0.039 ++++++++++++++++++++++++++++to 0.039
Heightened Def Con from 0.039 to 0.039
Heightened Def Con from 0.039 to 0.039
Heightened Def Con from 0.039 to 0.039
Heightened Def Con from 0.039 to 0.039
Heightened Def Con from 0.039 to 0.039
Heightened Def Con from 0.039 to 0.039
Heightened Def Con from 0.039 to 0.039
Heightened Def Con from 0.04 to 0.04
Heightened Def Con from 0.04 +to 0.04
Heightened Def Con from 0.04 to 0.04
Heightened Def Con from 0.04 to 0.04
Heightened Def Con from 0.041 to 0.041
Heightened Def Con from 0.042 to 0.042
Heightened Def Con from 0.042 to 0.042
Heightened Def Con from 0.042 to 0.042
Heightened Def Con from 0.043 to 0.043
Heightened Def Con from 0.043 to 0.043
Heightened Def Con from 0.043 to 0.043
Heightened Def Con from 0.044 to 0.044
Heightened Def Con from 0.044 to 0.044
Heightened Def Con from 0.045 to 0.045
Heightened Def Con from 0.045 to 0.045
Heightened Def Con from 0.045 to 0.045
Heightened Def Con from 0.045 to 0.045
Heightened Def Con from 0.046 to 0.046
Heightened Def Con from 0.046 to 0.046
Heightened Def Con from 0.046 to 0.046
Heightened Def Con from 0.047 to 0.047
Heightened Def Con from 0.047 +++++++++++++++++++to 0.047
Heightened Def Con from 0.047 to 0.047
Heightened Def Con from 0.048 +++++++++++++++++++++++to 0.048
Heightened Def Con from 0.048 to 0.048
Heightened Def Con from 0.048 to 0.048
Heightened Def Con from 0.049 to 0.049
Heightened Def Con from 0.049 to 0.049
Heightened Def Con from 0.049 to 0.049
Heightened Def Con from 0.05 to 0.05
Heightened Def Con from 0.05 to 0.05
Heightened Def Con from 0.051 to 0.051
Heightened Def Con from 0.051 to 0.051
Heightened Def Con from 0.051 to 0.051
Heightened Def Con from 0.052 ++++++++++++++++++++to 0.052
Heightened Def Con from 0.052 ++++++++++++++++++++++++to 0.052
Heightened Def Con from 0.052 to 0.052
Heightened Def Con from 0.053 to 0.053
Heightened Def Con from 0.053 to 0.053
Heightened Def Con from 0.053 to 0.053
Heightened Def Con from 0.054 to 0.054
Heightened Def Con from 0.054 to 0.054
Heightened Def Con from 0.054 to 0.054
Heightened Def Con from 0.055 to 0.055
Heightened Def Con from 0.055 to 0.055
Heightened Def Con from 0.055 to 0.055
Heightened Def Con from 0.056 +++++++++++++++++++++++to 0.056
Heightened Def Con from 0.056 to 0.056
Heightened Def Con from 0.057 to 0.057
Heightened Def Con from 0.057 to 0.057
Heightened Def Con from 0.057 to 0.057
Heightened Def Con from 0.058 +++++++++++++++++++++to 0.058
Heightened Def Con from 0.058 to 0.058
Heightened Def Con from 0.059 to 0.059
Heightened Def Con from 0.059 to 0.059
Heightened Def Con from 0.059 to 0.059
Heightened Def Con from 0.059 to 0.059
Heightened Def Con from 0.06 ++++++++++++++++++++++++to 0.06
Heightened Def Con from 0.06 to 0.06
Heightened Def Con from 0.061 to 0.061
Heightened Def Con from 0.061 to 0.061
Heightened Def Con from 0.061 to 0.061
Heightened Def Con from 0.062 to 0.062
Heightened Def Con from 0.062 to 0.062
Heightened Def Con from 0.062 to 0.062
Heightened Def Con from 0.063 to 0.063
Heightened Def Con from 0.063 +++++++++++++++++++to 0.063
Heightened Def Con from 0.063 to 0.063
Heightened Def Con from 0.063 to 0.063
Heightened Def Con from 0.064 +++++++++++++++++++++++++++++++to 0.064
Heightened Def Con from 0.064 ++++++++++++++++++++++++++++to 0.064
Heightened Def Con from 0.064 to 0.064
Heightened Def Con from 0.064 to 0.064
Heightened Def Con from 0.064 to 0.064
Heightened Def Con from 0.0640001 to 0.0640001
Heightened Def Con from 0.065 to 0.065
Heightened Def Con from 0.066 to 0.066
Heightened Def Con from 0.066 to 0.066
Heightened Def Con from 0.066 to 0.066
Heightened Def Con from 0.067 to 0.067
Heightened Def Con from 0.067 to 0.067
Heightened Def Con from 0.067 to 0.067
Heightened Def Con from 0.067 to 0.067
Heightened Def Con from 0.068 +to 0.068
Heightened Def Con from 0.068 to 0.068
Heightened Def Con from 0.069 to 0.069
Heightened Def Con from 0.069 to 0.069
Heightened Def Con from 0.07 to 0.07
Heightened Def Con from 0.07 to 0.07
Heightened Def Con from 0.07 to 0.07
Heightened Def Con from 0.071 to 0.071
Heightened Def Con from 0.071 to 0.071
Heightened Def Con from 0.071 to 0.071
Heightened Def Con from 0.071 to 0.071
Heightened Def Con from 0.072 +++++++++++++++++++++++to 0.072
Heightened Def Con from 0.072 to 0.072
Heightened Def Con from 0.072 to 0.072
Heightened Def Con from 0.073 to 0.073
Heightened Def Con from 0.073 to 0.073
Heightened Def Con from 0.073 to 0.073
Heightened Def Con from 0.074 to 0.074
Heightened Def Con from 0.074 to 0.074
Heightened Def Con from 0.075 to 0.075
Heightened Def Con from 0.075 ++++++++++++++++++++++to 0.075
Heightened Def Con from 0.075 to 0.075
Heightened Def Con from 0.075 to 0.075
Heightened Def Con from 0.076 +++++++++++++++++++++++to 0.076
Heightened Def Con from 0.076 to 0.076
Heightened Def Con from 0.077 to 0.077
Heightened Def Con from 0.077 to 0.077
Heightened Def Con from 0.077 to 0.077
Heightened Def Con from 0.077 to 0.077
Heightened Def Con from 0.078 to 0.078
Heightened Def Con from 0.078 to 0.078
Heightened Def Con from 0.078 to 0.078
Heightened Def Con from 0.079 to 0.079
Heightened Def Con from 0.079 +++++++++++++++++++to 0.079
Heightened Def Con from 0.079 to 0.079
Heightened Def Con from 0.08 ++++++++++++++++++++++++to 0.08
Heightened Def Con from 0.08 to 0.08
Heightened Def Con from 0.08 to 0.08
Heightened Def Con from 0.0800001 to 0.0800001
Heightened Def Con from 0.081 to 0.081
Heightened Def Con from 0.082 to 0.082
Heightened Def Con from 0.082 to 0.082
Heightened Def Con from 0.083 to 0.083
Heightened Def Con from 0.083 to 0.083
Heightened Def Con from 0.083 to 0.083
Heightened Def Con from 0.084 +++++++++++++++++++++to 0.084
Heightened Def Con from 0.084 +++++++++++++++++++++++to 0.084
Heightened Def Con from 0.084 to 0.084
Heightened Def Con from 0.085 to 0.085
Heightened Def Con from 0.085 to 0.085
Heightened Def Con from 0.085 to 0.085
Heightened Def Con from 0.086 to 0.086
Heightened Def Con from 0.086 to 0.086
Heightened Def Con from 0.086 to 0.086
Heightened Def Con from 0.087 to 0.087
Heightened Def Con from 0.087 to 0.087
Heightened Def Con from 0.087 to 0.087
Heightened Def Con from 0.087 to 0.087
Heightened Def Con from 0.088 +++++++++++++++++++++++to 0.088
Heightened Def Con from 0.088 to 0.088
Heightened Def Con from 0.088 to 0.088
Heightened Def Con from 0.089 to 0.089
Heightened Def Con from 0.089 to 0.089
Heightened Def Con from 0.089 to 0.089
Heightened Def Con from 0.09 to 0.09
Heightened Def Con from 0.09 to 0.09
Heightened Def Con from 0.09 to 0.09
Heightened Def Con from 0.091 to 0.091
Heightened Def Con from 0.092 +++++++++++++++++++++to 0.092
Heightened Def Con from 0.092 +++++++++++++++++++++++to 0.092
Heightened Def Con from 0.092 to 0.092
Heightened Def Con from 0.093 to 0.093
Heightened Def Con from 0.093 to 0.093
Heightened Def Con from 0.094 +to 0.094
Heightened Def Con from 0.094 to 0.094
Heightened Def Con from 0.095 +++++++++to 0.095
Heightened Def Con from 0.095 to 0.095
Heightened Def Con from 0.095 to 0.095
Heightened Def Con from 0.095 to 0.0950001
Heightened Def Con from 0.096 +++++++++++++++++++++++to 0.096
Heightened Def Con from 0.096 to 0.096
Heightened Def Con from 0.096 to 0.096
Heightened Def Con from 0.096 to 0.096
Heightened Def Con from 0.096 to 0.096
Heightened Def Con from 0.0960002 to 0.0960002
Heightened Def Con from 0.097 to 0.097
Heightened Def Con from 0.098 to 0.098
Heightened Def Con from 0.098 to 0.098
Heightened Def Con from 0.099 to 0.099
Heightened Def Con from 0.1 +++++++++++++++++++++to 0.1
Heightened Def Con from 0.1 +++++++++++++++++++++to 0.1
Heightened Def Con from 0.1 +++++++++++++++++++++++to 0.1
Heightened Def Con from 0.1 to 0.1
Heightened Def Con from 0.101 to 0.101
Heightened Def Con from 0.102 to 0.102
Heightened Def Con from 0.102 to 0.102
Heightened Def Con from 0.102 to 0.102
Heightened Def Con from 0.103 to 0.103
Heightened Def Con from 0.103 to 0.103
Heightened Def Con from 0.103 to 0.103
Heightened Def Con from 0.103 to 0.103
Heightened Def Con from 0.103 to 0.103
Heightened Def Con from 0.104 ++++++++++++++++++++++++to 0.104
Heightened Def Con from 0.104 to 0.104
Heightened Def Con from 0.105 to 0.105
Heightened Def Con from 0.105 to 0.105
Heightened Def Con from 0.105 to 0.105
Heightened Def Con from 0.105 to 0.105
Heightened Def Con from 0.106 to 0.106
Heightened Def Con from 0.106 to 0.106
Heightened Def Con from 0.106 to 0.106
Heightened Def Con from 0.107 to 0.107
Heightened Def Con from 0.107 to 0.107
Heightened Def Con from 0.107 to 0.107
Heightened Def Con from 0.108 +to 0.108
Heightened Def Con from 0.108 to 0.108
Heightened Def Con from 0.109 to 0.109
Heightened Def Con from 0.109 to 0.109
Heightened Def Con from 0.109 to 0.109
Heightened Def Con from 0.109 to 0.109
Heightened Def Con from 0.11 to 0.11
Heightened Def Con from 0.11 to 0.11
Heightened Def Con from 0.11 to 0.11
Heightened Def Con from 0.111 to 0.111
Heightened Def Con from 0.111 +++++++++++++++++++to 0.111
Heightened Def Con from 0.111 to 0.111
Heightened Def Con from 0.111 to 0.111
Heightened Def Con from 0.112 +to 0.112
Heightened Def Con from 0.112 to 0.112
Heightened Def Con from 0.112 to 0.112
Heightened Def Con from 0.112 to 0.112
Heightened Def Con from 0.113 to 0.113
Heightened Def Con from 0.113 to 0.113
Heightened Def Con from 0.113 to 0.113
Heightened Def Con from 0.114 +++++++++++++++++++++++to 0.114
Heightened Def Con from 0.114 to 0.114
Heightened Def Con from 0.115 to 0.115
Heightened Def Con from 0.115 to 0.115
Heightened Def Con from 0.115 to 0.115
Heightened Def Con from 0.115 to 0.115
Heightened Def Con from 0.116 +++++++++++++++++++++++to 0.116
Heightened Def Con from 0.116 to 0.116
Heightened Def Con from 0.117 to 0.117
Heightened Def Con from 0.117 to 0.117
Heightened Def Con from 0.117 to 0.117
Heightened Def Con from 0.118 +to 0.118
Heightened Def Con from 0.118 to 0.118
Heightened Def Con from 0.119 to 0.119
Heightened Def Con from 0.119 to 0.119
Heightened Def Con from 0.119 to 0.119
Heightened Def Con from 0.119 to 0.119
Heightened Def Con from 0.12 ++++++++++++++++++++++++to 0.12
Heightened Def Con from 0.12 to 0.12
Heightened Def Con from 0.121 to 0.121
Heightened Def Con from 0.121 to 0.121
Heightened Def Con from 0.122 +to 0.122
Heightened Def Con from 0.122 to 0.122
Heightened Def Con from 0.123 to 0.123
Heightened Def Con from 0.123 to 0.123
Heightened Def Con from 0.123 to 0.123
Heightened Def Con from 0.123 to 0.123
Heightened Def Con from 0.123 to 0.123
Heightened Def Con from 0.124 ++++++++++++++++++++++++to 0.124
Heightened Def Con from 0.124 to 0.124
Heightened Def Con from 0.125 to 0.125
Heightened Def Con from 0.125 to 0.125
Heightened Def Con from 0.125 to 0.125
Heightened Def Con from 0.125 to 0.125
Heightened Def Con from 0.126 to 0.126
Heightened Def Con from 0.126 to 0.126
Heightened Def Con from 0.126 to 0.126
Heightened Def Con from 0.127 to 0.127
Heightened Def Con from 0.127 +++++++++++++++++to 0.127
Heightened Def Con from 0.127 to 0.127
Heightened Def Con from 0.127 to 0.127
Heightened Def Con from 0.128 +++++++++++++++++++++++++to 0.128
Heightened Def Con from 0.128 +++++++++++++++++++++++++++++++to 0.128
Heightened Def Con from 0.128 ++++++++++++++++++++++++++++to 0.128
Heightened Def Con from 0.128 to 0.128
Heightened Def Con from 0.128 to 0.128
Heightened Def Con from 0.128 to 0.128
Heightened Def Con from 0.128 to 0.128
Heightened Def Con from 0.128 to 0.128
Heightened Def Con from 0.129 to 0.129
Heightened Def Con from 0.13 ++++++++++++++++++++to 0.13
Heightened Def Con from 0.13 ++++++++++++++++++++++to 0.13
Heightened Def Con from 0.13 to 0.13
Heightened Def Con from 0.131 to 0.131
Heightened Def Con from 0.131 to 0.131
Heightened Def Con from 0.131 to 0.131
Heightened Def Con from 0.132 ++++++++++++++++++++++++to 0.132
Heightened Def Con from 0.132 to 0.132
Heightened Def Con from 0.133 to 0.133
Heightened Def Con from 0.133 to 0.133
Heightened Def Con from 0.134 to 0.134
Heightened Def Con from 0.134 to 0.134
Heightened Def Con from 0.134 to 0.134
Heightened Def Con from 0.135 to 0.135
Heightened Def Con from 0.135 to 0.135
Heightened Def Con from 0.135 to 0.135
Heightened Def Con from 0.136 to 0.136
Heightened Def Con from 0.136 to 0.136
Heightened Def Con from 0.136 to 0.136
Heightened Def Con from 0.136 to 0.136
Heightened Def Con from 0.137 to 0.137
Heightened Def Con from 0.138 to 0.138
Heightened Def Con from 0.138 to 0.138
Heightened Def Con from 0.138 to 0.138
Heightened Def Con from 0.139 to 0.139
Heightened Def Con from 0.139 ++++++++++++++++++to 0.139
Heightened Def Con from 0.139 to 0.139
Heightened Def Con from 0.139 to 0.139
Heightened Def Con from 0.14 +to 0.14
Heightened Def Con from 0.14 to 0.14
Heightened Def Con from 0.141 to 0.141
Heightened Def Con from 0.141 to 0.141
Heightened Def Con from 0.141 to 0.141
Heightened Def Con from 0.141 to 0.141
Heightened Def Con from 0.141 to 0.141
Heightened Def Con from 0.142 to 0.142
Heightened Def Con from 0.142 to 0.142
Heightened Def Con from 0.142 to 0.142
Heightened Def Con from 0.143 to 0.143
Heightened Def Con from 0.143 to 0.143
Heightened Def Con from 0.143 to 0.143
Heightened Def Con from 0.144 ++++++++++++++++++++++++to 0.144
Heightened Def Con from 0.144 to 0.144
Heightened Def Con from 0.144 to 0.144
Heightened Def Con from 0.145 to 0.145
Heightened Def Con from 0.145 to 0.145
Heightened Def Con from 0.146 to 0.146
Heightened Def Con from 0.146 to 0.146
Heightened Def Con from 0.146 to 0.146
Heightened Def Con from 0.147 to 0.147
Heightened Def Con from 0.147 to 0.147
Heightened Def Con from 0.147 to 0.147
Heightened Def Con from 0.148 +++++++++++++++++++++++to 0.148
Heightened Def Con from 0.148 to 0.148
Heightened Def Con from 0.149 to 0.149
Heightened Def Con from 0.15 to 0.15
Heightened Def Con from 0.15 to 0.15
Heightened Def Con from 0.15 to 0.15
Heightened Def Con from 0.151 to 0.151
Heightened Def Con from 0.151 to 0.151
Heightened Def Con from 0.151 to 0.151
Heightened Def Con from 0.151 to 0.151
Heightened Def Con from 0.152 to 0.152
Heightened Def Con from 0.152 to 0.152
Heightened Def Con from 0.152 to 0.152
Heightened Def Con from 0.152 to 0.152
Heightened Def Con from 0.152 to 0.152
Heightened Def Con from 0.153 to 0.153
Heightened Def Con from 0.153 to 0.153
Heightened Def Con from 0.154 +to 0.154
Heightened Def Con from 0.154 to 0.154
Heightened Def Con from 0.155 to 0.155
Heightened Def Con from 0.155 to 0.155
Heightened Def Con from 0.155 to 0.155
Heightened Def Con from 0.155 to 0.155
Heightened Def Con from 0.156 ++++++++++++++++++++++++to 0.156
Heightened Def Con from 0.156 to 0.156
Heightened Def Con from 0.157 to 0.157
Heightened Def Con from 0.157 to 0.157
Heightened Def Con from 0.157 to 0.157
Heightened Def Con from 0.157 to 0.157
Heightened Def Con from 0.158 to 0.158
Heightened Def Con from 0.158 to 0.158
Heightened Def Con from 0.158 to 0.158
Heightened Def Con from 0.159 to 0.159
Heightened Def Con from 0.159 +++++++++++++++++to 0.159
Heightened Def Con from 0.159 to 0.159
Heightened Def Con from 0.159 to 0.159
Heightened Def Con from 0.16 +++++++++++++++++++++++++to 0.16
Heightened Def Con from 0.16 to 0.16
Heightened Def Con from 0.16 to 0.16
Heightened Def Con from 0.161 to 0.161
Heightened Def Con from 0.162 to 0.162
Heightened Def Con from 0.162 to 0.162
Heightened Def Con from 0.162 to 0.162
Heightened Def Con from 0.163 +to 0.163
Heightened Def Con from 0.163 to 0.163
Heightened Def Con from 0.164 +to 0.164
Heightened Def Con from 0.164 to 0.164
Heightened Def Con from 0.164 to 0.164
Heightened Def Con from 0.165 to 0.165
Heightened Def Con from 0.165 to 0.165
Heightened Def Con from 0.165 to 0.165
Heightened Def Con from 0.166 to 0.166
Heightened Def Con from 0.166 to 0.166
Heightened Def Con from 0.166 to 0.166
Heightened Def Con from 0.167 to 0.167
Heightened Def Con from 0.167 to 0.167
Heightened Def Con from 0.167 to 0.167
Heightened Def Con from 0.167 to 0.167
Heightened Def Con from 0.168 ++++++++++++++++++++++++to 0.168
Heightened Def Con from 0.168 to 0.168
Heightened Def Con from 0.168 to 0.168
Heightened Def Con from 0.169 to 0.169
Heightened Def Con from 0.169 to 0.169
Heightened Def Con from 0.169 to 0.169
Heightened Def Con from 0.17 to 0.17
Heightened Def Con from 0.17 to 0.17
Heightened Def Con from 0.17 to 0.17
Heightened Def Con from 0.171 to 0.171
Heightened Def Con from 0.171 to 0.171
Heightened Def Con from 0.171 to 0.171
Heightened Def Con from 0.172 to 0.172
Heightened Def Con from 0.172 to 0.172
Heightened Def Con from 0.172 to 0.172
Heightened Def Con from 0.173 to 0.173
Heightened Def Con from 0.173 to 0.173
Heightened Def Con from 0.173 to 0.173
Heightened Def Con from 0.173 to 0.173
Heightened Def Con from 0.174 to 0.174
Heightened Def Con from 0.174 to 0.174
Heightened Def Con from 0.174 to 0.174
Heightened Def Con from 0.175 to 0.175
Heightened Def Con from 0.175 +++++++++++++++++++to 0.175
Heightened Def Con from 0.175 to 0.175
Heightened Def Con from 0.176 +++++++++++++++++++++to 0.176
Heightened Def Con from 0.176 to 0.176
Heightened Def Con from 0.176 to 0.176
Heightened Def Con from 0.176 to 0.176
Heightened Def Con from 0.177 to 0.177
Heightened Def Con from 0.177 to 0.177
Heightened Def Con from 0.177 to 0.177
Heightened Def Con from 0.178 to 0.178
Heightened Def Con from 0.178 to 0.178
Heightened Def Con from 0.179 to 0.179
Heightened Def Con from 0.179 to 0.179
Heightened Def Con from 0.179 to 0.179
Heightened Def Con from 0.18 +++++++++++++++++++++++to 0.18
Heightened Def Con from 0.18 to 0.18
Heightened Def Con from 0.181 to 0.181
Heightened Def Con from 0.181 to 0.181
Heightened Def Con from 0.181 to 0.181
Heightened Def Con from 0.182 +to 0.182
Heightened Def Con from 0.182 to 0.182
Heightened Def Con from 0.183 to 0.183
Heightened Def Con from 0.183 to 0.183
Heightened Def Con from 0.183 to 0.183
Heightened Def Con from 0.184 +++++++++++++++++++++++to 0.184
Heightened Def Con from 0.184 to 0.184
Heightened Def Con from 0.185 to 0.185
Heightened Def Con from 0.185 to 0.185
Heightened Def Con from 0.185 to 0.185
Heightened Def Con from 0.186 to 0.186
Heightened Def Con from 0.186 to 0.186
Heightened Def Con from 0.186 to 0.186
Heightened Def Con from 0.187 to 0.187
Heightened Def Con from 0.188 ++++++++++++++++++++++++to 0.188
Heightened Def Con from 0.188 to 0.188
Heightened Def Con from 0.189 to 0.189
Heightened Def Con from 0.189 to 0.189
Heightened Def Con from 0.19 to 0.19
Heightened Def Con from 0.19 to 0.19
Heightened Def Con from 0.19 to 0.19
Heightened Def Con from 0.191 to 0.191
Heightened Def Con from 0.191 to 0.191
Heightened Def Con from 0.191 to 0.191
Heightened Def Con from 0.191 to 0.191
Heightened Def Con from 0.192 to 0.192
Heightened Def Con from 0.192 +++++++++++++++++++to 0.192
Heightened Def Con from 0.192 to 0.192
Heightened Def Con from 0.192 to 0.192
Heightened Def Con from 0.192 to 0.192
Heightened Def Con from 0.192 to 0.192
Heightened Def Con from 0.193 to 0.193
Heightened Def Con from 0.193 to 0.193
Heightened Def Con from 0.193 to 0.193
Heightened Def Con from 0.194 to 0.194
Heightened Def Con from 0.194 to 0.194
Heightened Def Con from 0.194 to 0.194
Heightened Def Con from 0.195 to 0.195
Heightened Def Con from 0.195 to 0.195
Heightened Def Con from 0.195 to 0.195
Heightened Def Con from 0.196 +++++++++++++++++++++++to 0.196
Heightened Def Con from 0.196 to 0.196
Heightened Def Con from 0.197 to 0.197
Heightened Def Con from 0.197 to 0.197
Heightened Def Con from 0.197 to 0.197
Heightened Def Con from 0.198 to 0.198
Heightened Def Con from 0.198 to 0.198
Heightened Def Con from 0.198 to 0.198
Heightened Def Con from 0.199 to 0.199
Heightened Def Con from 0.199 to 0.199
Heightened Def Con from 0.199 to 0.199
Heightened Def Con from 0.199 to 0.199
Heightened Def Con from 0.2 +++++++++++++++++++++++++to 0.2
Heightened Def Con from 0.2 to 0.2
Heightened Def Con from 0.2 to 0.2
Heightened Def Con from 0.201 to 0.201
Heightened Def Con from 0.201 to 0.201
Heightened Def Con from 0.201 to 0.201
Heightened Def Con from 0.202 to 0.202
Heightened Def Con from 0.202 to 0.202
Heightened Def Con from 0.202 to 0.202
Heightened Def Con from 0.203 to 0.203
Heightened Def Con from 0.203 to 0.203
Heightened Def Con from 0.204 ++++++++++++++++++++++++to 0.204
Heightened Def Con from 0.204 to 0.204
Heightened Def Con from 0.205 to 0.205
Heightened Def Con from 0.205 to 0.205
Heightened Def Con from 0.205 to 0.205
Heightened Def Con from 0.205 to 0.205
Heightened Def Con from 0.205 to 0.205
Heightened Def Con from 0.206 to 0.206
Heightened Def Con from 0.206 to 0.206
Heightened Def Con from 0.206 to 0.206
Heightened Def Con from 0.207 to 0.207
Heightened Def Con from 0.207 to 0.207
Heightened Def Con from 0.207 to 0.207
Heightened Def Con from 0.207 to 0.207
Heightened Def Con from 0.208 ++++++++++++++++++++++++to 0.208
Heightened Def Con from 0.208 to 0.208
Heightened Def Con from 0.208 to 0.208
Heightened Def Con from 0.209 to 0.209
Heightened Def Con from 0.209 to 0.209
Heightened Def Con from 0.209 +++++++++++++++++++++++++++to 0.209
Heightened Def Con from 0.209 to 0.209
Heightened Def Con from 0.209 to 0.209
Heightened Def Con from 0.209 to 0.209
Heightened Def Con from 0.21 ++++++++++++++++++++to 0.21
Heightened Def Con from 0.21 +++++++++++++++++++to 0.21
Heightened Def Con from 0.21 +++++++++++++++++++++to 0.21
Heightened Def Con from 0.21 +++++++++++++++++++++to 0.21
Heightened Def Con from 0.21 +++++++++++++++++++++to 0.21
Heightened Def Con from 0.21 +++++++++++++++++++++to 0.21
Heightened Def Con from 0.21 ++++++++++++++++++++++to 0.21
Heightened Def Con from 0.21 to 0.21
Heightened Def Con from 0.211 to 0.211
Heightened Def Con from 0.211 to 0.211
Heightened Def Con from 0.211 to 0.211
Heightened Def Con from 0.212 ++++++++++++++++++++to 0.212
Heightened Def Con from 0.212 +++++++++++++++++++++++to 0.212
Heightened Def Con from 0.212 to 0.212
Heightened Def Con from 0.213 ++++++++++++++++++to 0.213
Heightened Def Con from 0.213 to 0.213
Heightened Def Con from 0.213 +++++++++++++++++++to 0.213
Heightened Def Con from 0.213 to 0.213
Heightened Def Con from 0.214 +to 0.214
Heightened Def Con from 0.214 to 0.214
Heightened Def Con from 0.215 to 0.215
Heightened Def Con from 0.215 to 0.215
Heightened Def Con from 0.215 to 0.215
Heightened Def Con from 0.215 to 0.215
Heightened Def Con from 0.216 +++++++++++++++++++++++to 0.216
Heightened Def Con from 0.216 to 0.216
Heightened Def Con from 0.217 to 0.217
Heightened Def Con from 0.217 to 0.217
Heightened Def Con from 0.217 to 0.217
Heightened Def Con from 0.218 to 0.218
Heightened Def Con from 0.218 to 0.218
Heightened Def Con from 0.218 ++++++++++++++++++++++to 0.218
Heightened Def Con from 0.218 to 0.218
Heightened Def Con from 0.219 to 0.219
Heightened Def Con from 0.22 +++++++++++++++++++++++to 0.22
Heightened Def Con from 0.22 to 0.22
Heightened Def Con from 0.221 to 0.221
Heightened Def Con from 0.221 to 0.221
Heightened Def Con from 0.221 to 0.221
Heightened Def Con from 0.222 +++++++++++++++++++++++to 0.222
Heightened Def Con from 0.222 to 0.222
Heightened Def Con from 0.223 to 0.223
Heightened Def Con from 0.223 to 0.223
Heightened Def Con from 0.223 to 0.223
Heightened Def Con from 0.223 to 0.223
Heightened Def Con from 0.224 ++++++++++++++++++++++++to 0.224
Heightened Def Con from 0.224 to 0.224
Heightened Def Con from 0.224 to 0.224
Heightened Def Con from 0.225 to 0.225
Heightened Def Con from 0.225 to 0.225
Heightened Def Con from 0.225 to 0.225
Heightened Def Con from 0.225 ++++++++++++++++++++++++++++to 0.225
Heightened Def Con from 0.225 to 0.225
Heightened Def Con from 0.225 to 0.225
Heightened Def Con from 0.225 to 0.225
Heightened Def Con from 0.225 to 0.225
Heightened Def Con from 0.225 +++++++++++++++++++++++to 0.225
Heightened Def Con from 0.225 to 0.225
Heightened Def Con from 0.226 to 0.226
Heightened Def Con from 0.226 to 0.226
Heightened Def Con from 0.226 to 0.226
Heightened Def Con from 0.227 to 0.227
Heightened Def Con from 0.228 to 0.228
Heightened Def Con from 0.228 to 0.228
Heightened Def Con from 0.228 to 0.228
Heightened Def Con from 0.229 to 0.229
Heightened Def Con from 0.229 to 0.229
Heightened Def Con from 0.229 to 0.229
Heightened Def Con from 0.229 to 0.229
Heightened Def Con from 0.23 to 0.23
Heightened Def Con from 0.23 to 0.23
Heightened Def Con from 0.23 to 0.23
Heightened Def Con from 0.231 to 0.231
Heightened Def Con from 0.231 to 0.231
Heightened Def Con from 0.231 to 0.231
Heightened Def Con from 0.231 to 0.231
Heightened Def Con from 0.232 +++++++++++++++++++++to 0.232
Heightened Def Con from 0.232 ++++++++++++++++++++to 0.232
Heightened Def Con from 0.232 to 0.232
Heightened Def Con from 0.232 to 0.232
Heightened Def Con from 0.233 to 0.233
Heightened Def Con from 0.234 to 0.234
Heightened Def Con from 0.234 to 0.234
Heightened Def Con from 0.234 to 0.234
Heightened Def Con from 0.235 to 0.235
Heightened Def Con from 0.235 ++++++++++++++++++to 0.235
Heightened Def Con from 0.235 to 0.235
Heightened Def Con from 0.235 to 0.235
Heightened Def Con from 0.236 to 0.236
Heightened Def Con from 0.236 to 0.236
Heightened Def Con from 0.236 to 0.236
Heightened Def Con from 0.237 to 0.237
Heightened Def Con from 0.237 to 0.237
Heightened Def Con from 0.237 to 0.237
Heightened Def Con from 0.237 to 0.237
Heightened Def Con from 0.238 to 0.238
Heightened Def Con from 0.238 to 0.238
Heightened Def Con from 0.238 to 0.238
Heightened Def Con from 0.239 to 0.239
Heightened Def Con from 0.239 +++++++++++++++++++to 0.239
Heightened Def Con from 0.239 to 0.239
Heightened Def Con from 0.239 to 0.239
Heightened Def Con from 0.24 ++++++++++++++++++++++++to 0.24
Heightened Def Con from 0.24 to 0.24
Heightened Def Con from 0.241 to 0.241
Heightened Def Con from 0.241 to 0.241
Heightened Def Con from 0.241 to 0.241
Heightened Def Con from 0.242 to 0.242
Heightened Def Con from 0.242 to 0.242
Heightened Def Con from 0.242 to 0.242
Heightened Def Con from 0.243 to 0.243
Heightened Def Con from 0.243 to 0.243
Heightened Def Con from 0.243 to 0.243
Heightened Def Con from 0.244 +++++++++++++++++++++++to 0.244
Heightened Def Con from 0.244 to 0.244
Heightened Def Con from 0.245 to 0.245
Heightened Def Con from 0.245 to 0.245
Heightened Def Con from 0.245 to 0.245
Heightened Def Con from 0.246 to 0.246
Heightened Def Con from 0.246 to 0.246
Heightened Def Con from 0.246 to 0.246
Heightened Def Con from 0.247 to 0.247
Heightened Def Con from 0.247 to 0.247
Heightened Def Con from 0.247 to 0.247
Heightened Def Con from 0.247 to 0.247
Heightened Def Con from 0.248 to 0.248
Heightened Def Con from 0.248 to 0.248
Heightened Def Con from 0.248 to 0.248
Heightened Def Con from 0.248 to 0.248
Heightened Def Con from 0.248 to 0.248
Heightened Def Con from 0.249 to 0.249
Heightened Def Con from 0.249 to 0.249
Heightened Def Con from 0.249 to 0.249
Heightened Def Con from 0.25 +to 0.25
Heightened Def Con from 0.25 to 0.25
Heightened Def Con from 0.25 to 0.25
Heightened Def Con from 0.251 to 0.251
Heightened Def Con from 0.251 to 0.251
Heightened Def Con from 0.251 to 0.251
Heightened Def Con from 0.251 to 0.251
Heightened Def Con from 0.251 to 0.251
Heightened Def Con from 0.252 ++++++++++++++++++++++++to 0.252
Heightened Def Con from 0.252 to 0.252
Heightened Def Con from 0.253 to 0.253
Heightened Def Con from 0.253 to 0.253
Heightened Def Con from 0.253 to 0.253
Heightened Def Con from 0.254 to 0.254
Heightened Def Con from 0.254 to 0.254
Heightened Def Con from 0.254 to 0.254
Heightened Def Con from 0.255 to 0.255
Heightened Def Con from 0.255 ++++++++++++++++++to 0.255
Heightened Def Con from 0.255 to 0.255
Heightened Def Con from 0.255 to 0.255
Heightened Def Con from 0.255 to 0.255
Heightened Def Con from 0.255 to 0.255
Heightened Def Con from 0.256 ++++++++++++++++++++++++++to 0.256
Heightened Def Con from 0.256 ++++++++++++++++++++++++++++to 0.256
Heightened Def Con from 0.256 to 0.256
Heightened Def Con from 0.256 to 0.256
Heightened Def Con from 0.256 to 0.256
Heightened Def Con from 0.256 to 0.256
Heightened Def Con from 0.256 to 0.256
Heightened Def Con from 0.258 to 0.258
Heightened Def Con from 0.258 to 0.258
Heightened Def Con from 0.258 to 0.258
Heightened Def Con from 0.259 to 0.259
Heightened Def Con from 0.259 to 0.259
Heightened Def Con from 0.259 to 0.259
Heightened Def Con from 0.259 to 0.259
Heightened Def Con from 0.26 +++++++++++++++++++++++to 0.26
Heightened Def Con from 0.26 to 0.26
Heightened Def Con from 0.261 to 0.261
Heightened Def Con from 0.261 to 0.261
Heightened Def Con from 0.261 to 0.261
Heightened Def Con from 0.262 +to 0.262
Heightened Def Con from 0.262 to 0.262
Heightened Def Con from 0.263 to 0.263
Heightened Def Con from 0.263 to 0.263
Heightened Def Con from 0.263 to 0.263
Heightened Def Con from 0.264 to 0.264
Heightened Def Con from 0.264 to 0.264
Heightened Def Con from 0.264 to 0.264
Heightened Def Con from 0.264 to 0.264
Heightened Def Con from 0.265 to 0.265
Heightened Def Con from 0.265 to 0.265
Heightened Def Con from 0.265 to 0.265
Heightened Def Con from 0.266 to 0.266
Heightened Def Con from 0.266 to 0.266
Heightened Def Con from 0.266 to 0.266
Heightened Def Con from 0.267 to 0.267
Heightened Def Con from 0.267 to 0.267
Heightened Def Con from 0.267 to 0.267
Heightened Def Con from 0.267 to 0.267
Heightened Def Con from 0.268 +to 0.268
Heightened Def Con from 0.268 to 0.268
Heightened Def Con from 0.269 to 0.269
Heightened Def Con from 0.269 to 0.269
Heightened Def Con from 0.269 to 0.269
Heightened Def Con from 0.269 to 0.269
Heightened Def Con from 0.27 to 0.27
Heightened Def Con from 0.27 to 0.27
Heightened Def Con from 0.27 to 0.27
Heightened Def Con from 0.271 to 0.271
Heightened Def Con from 0.271 ++++++++++++++++++++to 0.271
Heightened Def Con from 0.271 to 0.271
Heightened Def Con from 0.272 to 0.272
Heightened Def Con from 0.272 ++++++++++++++++++++++to 0.272
Heightened Def Con from 0.272 to 0.272
Heightened Def Con from 0.272 to 0.272
Heightened Def Con from 0.273 to 0.273
Heightened Def Con from 0.273 to 0.273
Heightened Def Con from 0.274 to 0.274
Heightened Def Con from 0.274 to 0.274
Heightened Def Con from 0.274 to 0.274
Heightened Def Con from 0.275 to 0.275
Heightened Def Con from 0.275 to 0.275
Heightened Def Con from 0.275 to 0.275
Heightened Def Con from 0.276 ++++++++++++++++++++++to 0.276
Heightened Def Con from 0.276 ++++++++++++++++++++to 0.276
Heightened Def Con from 0.276 +++++++++++++++++++++to 0.276
Heightened Def Con from 0.276 to 0.276
Heightened Def Con from 0.276 to 0.276
Heightened Def Con from 0.277 to 0.277
Heightened Def Con from 0.277 to 0.277
Heightened Def Con from 0.277 to 0.277
Heightened Def Con from 0.278 to 0.278
Heightened Def Con from 0.278 to 0.278
Heightened Def Con from 0.278 to 0.278
Heightened Def Con from 0.279 to 0.279
Heightened Def Con from 0.279 to 0.279
Heightened Def Con from 0.279 to 0.279
Heightened Def Con from 0.279 to 0.279
Heightened Def Con from 0.279 to 0.279
Heightened Def Con from 0.28 to 0.28
Heightened Def Con from 0.28 ++++++++++++++++++++to 0.28
Heightened Def Con from 0.28 to 0.28
Heightened Def Con from 0.28 to 0.28
Heightened Def Con from 0.281 to 0.281
Heightened Def Con from 0.281 to 0.281
Heightened Def Con from 0.282 to 0.282
Heightened Def Con from 0.282 to 0.282
Heightened Def Con from 0.282 to 0.282
Heightened Def Con from 0.283 +to 0.283
Heightened Def Con from 0.283 to 0.283
Heightened Def Con from 0.283 to 0.283
Heightened Def Con from 0.284 +++++++++++++++++++++++to 0.284
Heightened Def Con from 0.284 to 0.284
Heightened Def Con from 0.285 to 0.285
Heightened Def Con from 0.285 to 0.285
Heightened Def Con from 0.285 to 0.285
Heightened Def Con from 0.285 to 0.285
Heightened Def Con from 0.286 to 0.286
Heightened Def Con from 0.286 to 0.286
Heightened Def Con from 0.286 to 0.286
Heightened Def Con from 0.287 to 0.287
Heightened Def Con from 0.287 to 0.287
Heightened Def Con from 0.287 to 0.287
Heightened Def Con from 0.287 to 0.287
Heightened Def Con from 0.288 +++++++++++++++++++++++++to 0.288
Heightened Def Con from 0.288 to 0.288
Heightened Def Con from 0.288 to 0.288
Heightened Def Con from 0.288 to 0.288
Heightened Def Con from 0.288 to 0.288
Heightened Def Con from 0.289 to 0.289
Heightened Def Con from 0.29 to 0.29
Heightened Def Con from 0.29 to 0.29
Heightened Def Con from 0.29 to 0.29
Heightened Def Con from 0.291 to 0.291
Heightened Def Con from 0.292 +++++++++++++++++++++++to 0.292
Heightened Def Con from 0.292 to 0.292
Heightened Def Con from 0.293 to 0.293
Heightened Def Con from 0.293 to 0.293
Heightened Def Con from 0.293 to 0.293
Heightened Def Con from 0.294 +++++++++++++++++++++++to 0.294
Heightened Def Con from 0.294 to 0.294
Heightened Def Con from 0.295 to 0.295
Heightened Def Con from 0.295 to 0.295
Heightened Def Con from 0.295 to 0.295
Heightened Def Con from 0.295 to 0.295
Heightened Def Con from 0.296 to 0.296
Heightened Def Con from 0.296 +to 0.296
Heightened Def Con from 0.296 to 0.296
Heightened Def Con from 0.297 to 0.297
Heightened Def Con from 0.297 to 0.297
Heightened Def Con from 0.297 to 0.297
Heightened Def Con from 0.298 to 0.298
Heightened Def Con from 0.298 to 0.298
Heightened Def Con from 0.298 to 0.298
Heightened Def Con from 0.299 to 0.299
Heightened Def Con from 0.299 to 0.299
Heightened Def Con from 0.299 to 0.299
Heightened Def Con from 0.299 to 0.299
Heightened Def Con from 0.3 ++++++++++++++++++++++++to 0.3
Heightened Def Con from 0.3 to 0.3
Heightened Def Con from 0.301 to 0.301
Heightened Def Con from 0.301 to 0.301
Heightened Def Con from 0.301 to 0.301
Heightened Def Con from 0.301 to 0.301
Heightened Def Con from 0.302 to 0.302
Heightened Def Con from 0.302 to 0.302
Heightened Def Con from 0.302 to 0.302
Heightened Def Con from 0.303 to 0.303
Heightened Def Con from 0.303 to 0.303
Heightened Def Con from 0.303 to 0.303
Heightened Def Con from 0.304 +++++++++++++++++++++++to 0.304
Heightened Def Con from 0.304 to 0.304
Heightened Def Con from 0.304 to 0.304
Heightened Def Con from 0.305 to 0.305
Heightened Def Con from 0.306 to 0.306
Heightened Def Con from 0.306 to 0.306
Heightened Def Con from 0.307 to 0.307
Heightened Def Con from 0.307 to 0.307
Heightened Def Con from 0.307 to 0.307
Heightened Def Con from 0.308 +++++++++++++++++to 0.308
Heightened Def Con from 0.308 +++++++++++++++++++++++to 0.308
Heightened Def Con from 0.308 to 0.308
Heightened Def Con from 0.309 to 0.309
Heightened Def Con from 0.309 to 0.309
Heightened Def Con from 0.309 to 0.309
Heightened Def Con from 0.31 to 0.31
Heightened Def Con from 0.31 to 0.31
Heightened Def Con from 0.31 to 0.31
Heightened Def Con from 0.311 to 0.311
Heightened Def Con from 0.311 to 0.311
Heightened Def Con from 0.311 to 0.311
Heightened Def Con from 0.312 ++++++++++++++++++++++to 0.312
Heightened Def Con from 0.312 to 0.312
Heightened Def Con from 0.312 to 0.312
Heightened Def Con from 0.313 to 0.313
Heightened Def Con from 0.314 to 0.314
Heightened Def Con from 0.314 to 0.314
Heightened Def Con from 0.314 to 0.314
Heightened Def Con from 0.315 to 0.315
Heightened Def Con from 0.315 to 0.315
Heightened Def Con from 0.316 ++++++++++++++++++++++++to 0.316
Heightened Def Con from 0.316 to 0.316
Heightened Def Con from 0.317 to 0.317
Heightened Def Con from 0.317 to 0.317
Heightened Def Con from 0.317 to 0.317
Heightened Def Con from 0.317 to 0.317
Heightened Def Con from 0.318 to 0.318
Heightened Def Con from 0.318 to 0.318
Heightened Def Con from 0.318 to 0.318
Heightened Def Con from 0.319 to 0.319
Heightened Def Con from 0.319 ++++++++++++++++++to 0.319
Heightened Def Con from 0.319 ++++++++++++++++++to 0.319
Heightened Def Con from 0.319 ++++++++++++++++++to 0.319
Heightened Def Con from 0.319 ++++++++++++++++++to 0.319
Heightened Def Con from 0.319 ++++++++++++++++++++to 0.319
Heightened Def Con from 0.319 +++++++++++++++++++to 0.319
Heightened Def Con from 0.319 to 0.319
Heightened Def Con from 0.319 to 0.319
Heightened Def Con from 0.319 to 0.319
Heightened Def Con from 0.32 ++++++++++++++++++++++++to 0.32
Heightened Def Con from 0.32 to 0.32
Heightened Def Con from 0.32 to 0.32
Heightened Def Con from 0.32 to 0.32
Heightened Def Con from 0.32 to 0.32
Heightened Def Con from 0.321 to 0.321
Heightened Def Con from 0.321 to 0.321
Heightened Def Con from 0.322 to 0.322
Heightened Def Con from 0.322 to 0.322
Heightened Def Con from 0.322 to 0.322
Heightened Def Con from 0.323 to 0.323
Heightened Def Con from 0.323 to 0.323
Heightened Def Con from 0.323 to 0.323
Heightened Def Con from 0.323 to 0.323
Heightened Def Con from 0.324 +++++++++++++++++++++++to 0.324
Heightened Def Con from 0.324 to 0.324
Heightened Def Con from 0.325 to 0.325
Heightened Def Con from 0.326 to 0.326
Heightened Def Con from 0.326 to 0.326
Heightened Def Con from 0.326 to 0.326
Heightened Def Con from 0.327 to 0.327
Heightened Def Con from 0.327 to 0.327
Heightened Def Con from 0.327 to 0.327
Heightened Def Con from 0.327 to 0.327
Heightened Def Con from 0.328 to 0.328
Heightened Def Con from 0.328 to 0.328
Heightened Def Con from 0.328 to 0.328
Heightened Def Con from 0.328 to 0.328
Heightened Def Con from 0.329 to 0.329
Heightened Def Con from 0.329 to 0.329
Heightened Def Con from 0.329 to 0.329
Heightened Def Con from 0.33 to 0.33
Heightened Def Con from 0.33 to 0.33
Heightened Def Con from 0.33 to 0.33
Heightened Def Con from 0.331 to 0.331
Heightened Def Con from 0.331 to 0.331
Heightened Def Con from 0.332 ++++++++++++++++++++++++to 0.332
Heightened Def Con from 0.332 to 0.332
Heightened Def Con from 0.333 to 0.333
Heightened Def Con from 0.333 to 0.333
Heightened Def Con from 0.333 to 0.333
Heightened Def Con from 0.333 to 0.333
Heightened Def Con from 0.334 to 0.334
Heightened Def Con from 0.334 to 0.334
Heightened Def Con from 0.334 to 0.334
Heightened Def Con from 0.335 ++++++++++++++++++to 0.335
Heightened Def Con from 0.335 to 0.335
Heightened Def Con from 0.336 ++++++++++++++++++++++++to 0.336
Heightened Def Con from 0.336 to 0.336
Heightened Def Con from 0.336 to 0.336
Heightened Def Con from 0.337 to 0.337
Heightened Def Con from 0.337 to 0.337
Heightened Def Con from 0.338 to 0.338
Heightened Def Con from 0.338 to 0.338
Heightened Def Con from 0.338 to 0.338
Heightened Def Con from 0.339 to 0.339
Heightened Def Con from 0.339 ++++++++++++++++to 0.339
Heightened Def Con from 0.339 to 0.339
Heightened Def Con from 0.34 +++++++++++++++++++++++to 0.34
Heightened Def Con from 0.34 to 0.34
Heightened Def Con from 0.341 to 0.341
Heightened Def Con from 0.341 to 0.341
Heightened Def Con from 0.342 to 0.342
Heightened Def Con from 0.342 to 0.342
Heightened Def Con from 0.343 to 0.343
Heightened Def Con from 0.343 to 0.343
Heightened Def Con from 0.343 to 0.343
Heightened Def Con from 0.343 to 0.343
Heightened Def Con from 0.343 to 0.343
Heightened Def Con from 0.344 ++++++++++++++++++++++++to 0.344
Heightened Def Con from 0.344 to 0.344
Heightened Def Con from 0.344 to 0.344
Heightened Def Con from 0.345 to 0.345
Heightened Def Con from 0.345 to 0.345
Heightened Def Con from 0.345 to 0.345
Heightened Def Con from 0.346 to 0.346
Heightened Def Con from 0.346 to 0.346
Heightened Def Con from 0.346 to 0.346
Heightened Def Con from 0.347 to 0.347
Heightened Def Con from 0.347 to 0.347
Heightened Def Con from 0.347 to 0.347
Heightened Def Con from 0.348 ++++++++++++++++++++++++to 0.348
Heightened Def Con from 0.348 to 0.348
Heightened Def Con from 0.349 to 0.349
Heightened Def Con from 0.349 to 0.349
Heightened Def Con from 0.35 to 0.35
Heightened Def Con from 0.35 to 0.35
Heightened Def Con from 0.351 to 0.351
Heightened Def Con from 0.351 to 0.351
Heightened Def Con from 0.351 to 0.351
Heightened Def Con from 0.351 to 0.351
Heightened Def Con from 0.352 +++++++++++++++++++++++++to 0.352
Heightened Def Con from 0.352 to 0.352
Heightened Def Con from 0.352 to 0.352
Heightened Def Con from 0.352 to 0.352
Heightened Def Con from 0.353 to 0.353
Heightened Def Con from 0.354 ++++++++++++++++++++++to 0.354
Heightened Def Con from 0.354 to 0.354
Heightened Def Con from 0.355 +to 0.355
Heightened Def Con from 0.355 to 0.355
Heightened Def Con from 0.355 to 0.355
Heightened Def Con from 0.355 to 0.355
Heightened Def Con from 0.356 +++++++++++++++++++++++to 0.356
Heightened Def Con from 0.356 to 0.356
Heightened Def Con from 0.357 to 0.357
Heightened Def Con from 0.357 to 0.357
Heightened Def Con from 0.357 to 0.357
Heightened Def Con from 0.358 to 0.358
Heightened Def Con from 0.358 to 0.358
Heightened Def Con from 0.358 to 0.358
Heightened Def Con from 0.359 to 0.359
Heightened Def Con from 0.359 to 0.359
Heightened Def Con from 0.359 to 0.359
Heightened Def Con from 0.359 to 0.359
Heightened Def Con from 0.36 +++++++++++++++++++++++++to 0.36
Heightened Def Con from 0.36 to 0.36
Heightened Def Con from 0.36 to 0.36
Heightened Def Con from 0.361 to 0.361
Heightened Def Con from 0.361 to 0.361
Heightened Def Con from 0.361 to 0.361
Heightened Def Con from 0.361 to 0.361
Heightened Def Con from 0.362 to 0.362
Heightened Def Con from 0.362 to 0.362
Heightened Def Con from 0.362 to 0.362
Heightened Def Con from 0.363 to 0.363
Heightened Def Con from 0.363 to 0.363
Heightened Def Con from 0.363 to 0.363
Heightened Def Con from 0.363 to 0.363
Heightened Def Con from 0.364 ++++++++++++++++++++++++to 0.364
Heightened Def Con from 0.364 to 0.364
Heightened Def Con from 0.365 to 0.365
Heightened Def Con from 0.365 to 0.365
Heightened Def Con from 0.365 to 0.365
Heightened Def Con from 0.365 to 0.365
Heightened Def Con from 0.366 to 0.366
Heightened Def Con from 0.366 to 0.366
Heightened Def Con from 0.366 to 0.366
Heightened Def Con from 0.367 to 0.367
Heightened Def Con from 0.367 +++++++++++++++++to 0.367
Heightened Def Con from 0.367 to 0.367
Heightened Def Con from 0.368 to 0.368
Heightened Def Con from 0.368 to 0.368
Heightened Def Con from 0.368 to 0.368
Heightened Def Con from 0.369 to 0.369
Heightened Def Con from 0.369 to 0.369
Heightened Def Con from 0.369 to 0.369
Heightened Def Con from 0.37 to 0.37
Heightened Def Con from 0.37 to 0.37
Heightened Def Con from 0.37 to 0.37
Heightened Def Con from 0.371 to 0.371
Heightened Def Con from 0.371 ++++++++++++++++to 0.371
Heightened Def Con from 0.371 to 0.371
Heightened Def Con from 0.371 to 0.371
Heightened Def Con from 0.372 ++to 0.372
Heightened Def Con from 0.372 to 0.372
Heightened Def Con from 0.373 to 0.373
Heightened Def Con from 0.373 to 0.373
Heightened Def Con from 0.373 to 0.373
Heightened Def Con from 0.373 to 0.373
Heightened Def Con from 0.374 +to 0.374
Heightened Def Con from 0.374 to 0.374
Heightened Def Con from 0.375 to 0.375
Heightened Def Con from 0.375 to 0.375
Heightened Def Con from 0.375 to 0.375
Heightened Def Con from 0.375 to 0.375
Heightened Def Con from 0.376 ++++++++++++++++++++++to 0.376
Heightened Def Con from 0.376 ++++++++++++++++++++++to 0.376
Heightened Def Con from 0.376 to 0.376
Heightened Def Con from 0.377 to 0.377
Heightened Def Con from 0.377 to 0.377
Heightened Def Con from 0.378 to 0.378
Heightened Def Con from 0.378 to 0.378
Heightened Def Con from 0.378 to 0.378
Heightened Def Con from 0.379 ++++++++++++++++++++++++++++to 0.379
Heightened Def Con from 0.379 +++++++++++++++++++to 0.379
Heightened Def Con from 0.379 +++++++++++++++++++++to 0.379
Heightened Def Con from 0.379 to 0.379
Heightened Def Con from 0.379 to 0.379
Heightened Def Con from 0.38 ++++++++++++++++++++++++to 0.38
Heightened Def Con from 0.38 to 0.38
Heightened Def Con from 0.381 to 0.381
Heightened Def Con from 0.381 to 0.381
Heightened Def Con from 0.381 to 0.381
Heightened Def Con from 0.381 to 0.381
Heightened Def Con from 0.382 to 0.382
Heightened Def Con from 0.382 to 0.382
Heightened Def Con from 0.382 to 0.382
Heightened Def Con from 0.383 to 0.383
Heightened Def Con from 0.383 to 0.383
Heightened Def Con from 0.383 +++++++++++++++++++to 0.383
Heightened Def Con from 0.383 to 0.383
Heightened Def Con from 0.383 to 0.383
Heightened Def Con from 0.384 to 0.384
Heightened Def Con from 0.384 +++++++++++++++++++++to 0.384
Heightened Def Con from 0.384 to 0.384
Heightened Def Con from 0.384 to 0.384
Heightened Def Con from 0.384 to 0.384
Heightened Def Con from 0.384 to 0.384
Heightened Def Con from 0.384 to 0.384
Heightened Def Con from 0.385 to 0.385
Heightened Def Con from 0.386 to 0.386
Heightened Def Con from 0.386 to 0.386
Heightened Def Con from 0.386 to 0.386
Heightened Def Con from 0.387 to 0.387
Heightened Def Con from 0.388 +++++++++++++++++++++++to 0.388
Heightened Def Con from 0.388 to 0.388
Heightened Def Con from 0.389 to 0.389
Heightened Def Con from 0.389 to 0.389
Heightened Def Con from 0.39 to 0.39
Heightened Def Con from 0.39 to 0.39
Heightened Def Con from 0.39 to 0.39
Heightened Def Con from 0.391 to 0.391
Heightened Def Con from 0.391 to 0.391
Heightened Def Con from 0.391 to 0.391
Heightened Def Con from 0.392 to 0.392
Heightened Def Con from 0.392 +to 0.392
Heightened Def Con from 0.392 to 0.392
Heightened Def Con from 0.393 to 0.393
Heightened Def Con from 0.394 to 0.394
Heightened Def Con from 0.394 to 0.394
Heightened Def Con from 0.394 to 0.394
Heightened Def Con from 0.395 to 0.395
Heightened Def Con from 0.395 to 0.395
Heightened Def Con from 0.395 to 0.395
Heightened Def Con from 0.395 to 0.395
Heightened Def Con from 0.396 +to 0.396
Heightened Def Con from 0.396 to 0.396
Heightened Def Con from 0.397 to 0.397
Heightened Def Con from 0.397 to 0.397
Heightened Def Con from 0.397 to 0.397
Heightened Def Con from 0.397 to 0.397
Heightened Def Con from 0.398 to 0.398
Heightened Def Con from 0.398 to 0.398
Heightened Def Con from 0.398 to 0.398
Heightened Def Con from 0.399 to 0.399
Heightened Def Con from 0.399 to 0.399
Heightened Def Con from 0.399 to 0.399
Heightened Def Con from 0.4 +++++++++++++++++++++++to 0.4
Heightened Def Con from 0.4 to 0.4
Heightened Def Con from 0.4 to 0.4
Heightened Def Con from 0.401 to 0.401
Heightened Def Con from 0.401 to 0.401
Heightened Def Con from 0.402 +to 0.402
Heightened Def Con from 0.402 to 0.402
Heightened Def Con from 0.403 to 0.403
Heightened Def Con from 0.404 ++++++++++++++++++++++to 0.404
Heightened Def Con from 0.404 +++++++++++++++++++++to 0.404
Heightened Def Con from 0.404 to 0.404
Heightened Def Con from 0.404 to 0.404
Heightened Def Con from 0.405 to 0.405
Heightened Def Con from 0.405 to 0.405
Heightened Def Con from 0.405 to 0.405
Heightened Def Con from 0.406 to 0.406
Heightened Def Con from 0.406 +++++++++++++++++++++++to 0.406
Heightened Def Con from 0.406 to 0.406
Heightened Def Con from 0.407 to 0.407
Heightened Def Con from 0.407 to 0.407
Heightened Def Con from 0.407 to 0.407
Heightened Def Con from 0.407 to 0.407
Heightened Def Con from 0.408 +++++++++++++++++++++++++to 0.408
Heightened Def Con from 0.408 to 0.408
Heightened Def Con from 0.409 to 0.409
Heightened Def Con from 0.409 to 0.409
Heightened Def Con from 0.409 to 0.409
Heightened Def Con from 0.409 to 0.409
Heightened Def Con from 0.41 +to 0.41
Heightened Def Con from 0.41 to 0.41
Heightened Def Con from 0.411 to 0.411
Heightened Def Con from 0.411 +++++++++++++++++++++to 0.411
Heightened Def Con from 0.411 ++++++++++++++++++++++to 0.411
Heightened Def Con from 0.411 to 0.411
Heightened Def Con from 0.412 ++++++++++++++++++++++++to 0.412
Heightened Def Con from 0.412 to 0.412
Heightened Def Con from 0.413 to 0.413
Heightened Def Con from 0.414 to 0.414
Heightened Def Con from 0.414 to 0.414
Heightened Def Con from 0.414 to 0.414
Heightened Def Con from 0.415 to 0.415
Heightened Def Con from 0.415 +++++++++++++++++to 0.415
Heightened Def Con from 0.415 to 0.415
Heightened Def Con from 0.415 to 0.415
Heightened Def Con from 0.416 ++++++++++++++++++++++++to 0.416
Heightened Def Con from 0.416 to 0.416
Heightened Def Con from 0.416 to 0.416
Heightened Def Con from 0.417 to 0.417
Heightened Def Con from 0.418 to 0.418
Heightened Def Con from 0.418 to 0.418
Heightened Def Con from 0.418 to 0.418
Heightened Def Con from 0.419 to 0.419
Heightened Def Con from 0.419 to 0.419
Heightened Def Con from 0.419 to 0.419
Heightened Def Con from 0.42 +++++++++++++++++++++++to 0.42
Heightened Def Con from 0.42 to 0.42
Heightened Def Con from 0.421 to 0.421
Heightened Def Con from 0.421 to 0.421
Heightened Def Con from 0.422 to 0.422
Heightened Def Con from 0.422 to 0.422
Heightened Def Con from 0.422 to 0.422
Heightened Def Con from 0.423 to 0.423
Heightened Def Con from 0.423 to 0.423
Heightened Def Con from 0.423 to 0.423
Heightened Def Con from 0.423 to 0.423
Heightened Def Con from 0.424 ++++++++++++++++++++++++to 0.424
Heightened Def Con from 0.424 to 0.424
Heightened Def Con from 0.424 to 0.424
Heightened Def Con from 0.425 to 0.425
Heightened Def Con from 0.425 to 0.425
Heightened Def Con from 0.425 to 0.425
Heightened Def Con from 0.426 to 0.426
Heightened Def Con from 0.426 to 0.426
Heightened Def Con from 0.426 to 0.426
Heightened Def Con from 0.427 to 0.427
Heightened Def Con from 0.427 to 0.427
Heightened Def Con from 0.427 to 0.427
Heightened Def Con from 0.427 to 0.427
Heightened Def Con from 0.428 to 0.428
Heightened Def Con from 0.428 to 0.428
Heightened Def Con from 0.428 to 0.428
Heightened Def Con from 0.429 to 0.429
Heightened Def Con from 0.429 to 0.429
Heightened Def Con from 0.429 to 0.429
Heightened Def Con from 0.429 to 0.429
Heightened Def Con from 0.43 to 0.43
Heightened Def Con from 0.43 to 0.43
Heightened Def Con from 0.43 to 0.43
Heightened Def Con from 0.431 +to 0.431
Heightened Def Con from 0.431 to 0.431
Heightened Def Con from 0.432 to 0.432
Heightened Def Con from 0.432 to 0.432
Heightened Def Con from 0.432 to 0.432
Heightened Def Con from 0.432 to 0.432
Heightened Def Con from 0.432 to 0.432
Heightened Def Con from 0.433 to 0.433
Heightened Def Con from 0.433 to 0.433
Heightened Def Con from 0.434 to 0.434
Heightened Def Con from 0.434 to 0.434
Heightened Def Con from 0.434 to 0.434
Heightened Def Con from 0.435 to 0.435
Heightened Def Con from 0.435 +to 0.435
Heightened Def Con from 0.435 to 0.435
Heightened Def Con from 0.436 ++++++++++++++++++++++to 0.436
Heightened Def Con from 0.436 ++++++++++++++++++++++to 0.436
Heightened Def Con from 0.436 to 0.436
Heightened Def Con from 0.436 to 0.436
Heightened Def Con from 0.437 to 0.437
Heightened Def Con from 0.438 +to 0.438
Heightened Def Con from 0.438 to 0.438
Heightened Def Con from 0.439 to 0.439
Heightened Def Con from 0.439 to 0.439
Heightened Def Con from 0.439 to 0.439
Heightened Def Con from 0.44 to 0.44
Heightened Def Con from 0.44 ++++++++++++++++to 0.44
Heightened Def Con from 0.44 ++++++++++++++++++++to 0.44
Heightened Def Con from 0.44 to 0.44
Heightened Def Con from 0.44 to 0.44
Heightened Def Con from 0.441 to 0.441
Heightened Def Con from 0.441 to 0.441
Heightened Def Con from 0.441 to 0.441
Heightened Def Con from 0.441 to 0.441
Heightened Def Con from 0.442 to 0.442
Heightened Def Con from 0.442 to 0.442
Heightened Def Con from 0.442 to 0.442
Heightened Def Con from 0.443 to 0.443
Heightened Def Con from 0.443 ++++++++++++++++++++++to 0.443
Heightened Def Con from 0.443 to 0.443
Heightened Def Con from 0.443 to 0.443
Heightened Def Con from 0.444 ++++++++++++++++++++++++to 0.444
Heightened Def Con from 0.444 to 0.444
Heightened Def Con from 0.445 to 0.445
Heightened Def Con from 0.445 to 0.445
Heightened Def Con from 0.445 to 0.445
Heightened Def Con from 0.445 to 0.445
Heightened Def Con from 0.445 to 0.445
Heightened Def Con from 0.446 to 0.446
Heightened Def Con from 0.446 to 0.446
Heightened Def Con from 0.446 to 0.446
Heightened Def Con from 0.447 to 0.447
Heightened Def Con from 0.447 ++++++++++++++++to 0.447
Heightened Def Con from 0.447 to 0.447
Heightened Def Con from 0.447 to 0.447
Heightened Def Con from 0.447 to 0.447
Heightened Def Con from 0.448 +++++++++++++++++++++++++to 0.448
Heightened Def Con from 0.448 to 0.448
Heightened Def Con from 0.448 to 0.448
Heightened Def Con from 0.448 to 0.448
Heightened Def Con from 0.448 to 0.448
Heightened Def Con from 0.45 +to 0.45
Heightened Def Con from 0.45 to 0.45
Heightened Def Con from 0.451 to 0.451
Heightened Def Con from 0.451 ++++++++++++++++++to 0.451
Heightened Def Con from 0.451 to 0.451
Heightened Def Con from 0.451 to 0.451
Heightened Def Con from 0.452 ++++++++++++++++++++++++to 0.452
Heightened Def Con from 0.452 to 0.452
Heightened Def Con from 0.452 to 0.452
Heightened Def Con from 0.453 to 0.453
Heightened Def Con from 0.453 to 0.453
Heightened Def Con from 0.453 to 0.453
Heightened Def Con from 0.454 to 0.454
Heightened Def Con from 0.454 to 0.454
Heightened Def Con from 0.454 to 0.454
Heightened Def Con from 0.455 to 0.455
Heightened Def Con from 0.455 to 0.455
Heightened Def Con from 0.455 to 0.455
Heightened Def Con from 0.455 to 0.455
Heightened Def Con from 0.456 to 0.456
Heightened Def Con from 0.456 to 0.456
Heightened Def Con from 0.456 to 0.456
Heightened Def Con from 0.456 to 0.456
Heightened Def Con from 0.456 to 0.456
Heightened Def Con from 0.457 to 0.457
Heightened Def Con from 0.457 to 0.457
Heightened Def Con from 0.457 to 0.457
Heightened Def Con from 0.457 to 0.457
Heightened Def Con from 0.458 to 0.458
Heightened Def Con from 0.458 to 0.458
Heightened Def Con from 0.459 to 0.459
Heightened Def Con from 0.459 to 0.459
Heightened Def Con from 0.459 to 0.459
Heightened Def Con from 0.459 to 0.459
Heightened Def Con from 0.46 +to 0.46
Heightened Def Con from 0.461 to 0.461
Heightened Def Con from 0.461 to 0.461
Heightened Def Con from 0.461 to 0.461
Heightened Def Con from 0.461 to 0.461
Heightened Def Con from 0.462 to 0.462
Heightened Def Con from 0.462 to 0.462
Heightened Def Con from 0.462 to 0.462
Heightened Def Con from 0.463 to 0.463
Heightened Def Con from 0.463 +++++++++++++++++++++to 0.463
Heightened Def Con from 0.463 to 0.463
Heightened Def Con from 0.463 to 0.463
Heightened Def Con from 0.464 +++++++++++++++++++++++++to 0.464
Heightened Def Con from 0.464 to 0.464
Heightened Def Con from 0.464 to 0.464
Heightened Def Con from 0.464 to 0.464
Heightened Def Con from 0.465 to 0.465
Heightened Def Con from 0.465 to 0.465
Heightened Def Con from 0.465 to 0.465
Heightened Def Con from 0.466 to 0.466
Heightened Def Con from 0.466 to 0.466
Heightened Def Con from 0.466 to 0.466
Heightened Def Con from 0.467 to 0.467
Heightened Def Con from 0.467 to 0.467
Heightened Def Con from 0.467 to 0.467
Heightened Def Con from 0.468 +++++++++++++++++++++++to 0.468
Heightened Def Con from 0.468 to 0.468
Heightened Def Con from 0.469 to 0.469
Heightened Def Con from 0.47 to 0.47
Heightened Def Con from 0.47 to 0.47
Heightened Def Con from 0.47 to 0.47
Heightened Def Con from 0.47 to 0.47
Heightened Def Con from 0.471 +to 0.471
Heightened Def Con from 0.471 to 0.471
Heightened Def Con from 0.471 to 0.471
Heightened Def Con from 0.472 ++++++++++++++++++++++to 0.472
Heightened Def Con from 0.472 to 0.472
Heightened Def Con from 0.472 to 0.472
Heightened Def Con from 0.473 to 0.473
Heightened Def Con from 0.473 to 0.473
Heightened Def Con from 0.473 to 0.473
Heightened Def Con from 0.474 to 0.474
Heightened Def Con from 0.474 to 0.474
Heightened Def Con from 0.474 to 0.474
Heightened Def Con from 0.475 to 0.475
Heightened Def Con from 0.475 to 0.475
Heightened Def Con from 0.475 to 0.475
Heightened Def Con from 0.476 ++++++++++++++++++++++++to 0.476
Heightened Def Con from 0.476 to 0.476
Heightened Def Con from 0.477 to 0.477
Heightened Def Con from 0.477 to 0.477
Heightened Def Con from 0.477 to 0.477
Heightened Def Con from 0.478 +to 0.478
Heightened Def Con from 0.478 to 0.478
Heightened Def Con from 0.479 to 0.479
Heightened Def Con from 0.479 +++++++++++++++++++to 0.479
Heightened Def Con from 0.479 to 0.479
Heightened Def Con from 0.479 to 0.479
Heightened Def Con from 0.48 ++++++++++++++++++++++++to 0.48
Heightened Def Con from 0.48 to 0.48
Heightened Def Con from 0.48 to 0.48
Heightened Def Con from 0.48 to 0.48
Heightened Def Con from 0.481 to 0.481
Heightened Def Con from 0.481 to 0.481
Heightened Def Con from 0.481 to 0.481
Heightened Def Con from 0.482 to 0.482
Heightened Def Con from 0.482 to 0.482
Heightened Def Con from 0.483 +to 0.483
Heightened Def Con from 0.483 to 0.483
Heightened Def Con from 0.484 ++++++++++++++++++++++++to 0.484
Heightened Def Con from 0.484 to 0.484
Heightened Def Con from 0.485 to 0.485
Heightened Def Con from 0.485 to 0.485
Heightened Def Con from 0.485 to 0.485
Heightened Def Con from 0.486 +to 0.486
Heightened Def Con from 0.486 to 0.486
Heightened Def Con from 0.487 to 0.487
Heightened Def Con from 0.487 to 0.487
Heightened Def Con from 0.487 to 0.487
Heightened Def Con from 0.487 to 0.487
Heightened Def Con from 0.488 ++++++++++++++++++++++to 0.488
Heightened Def Con from 0.488 ++++++++++++++++++++++to 0.488
Heightened Def Con from 0.488 to 0.488
Heightened Def Con from 0.488 to 0.488
Heightened Def Con from 0.489 to 0.489
Heightened Def Con from 0.489 to 0.489
Heightened Def Con from 0.489 to 0.489
Heightened Def Con from 0.489 to 0.489
Heightened Def Con from 0.49 to 0.49
Heightened Def Con from 0.49 +++++++++++++++++++++to 0.49
Heightened Def Con from 0.49 to 0.49
Heightened Def Con from 0.491 to 0.491
Heightened Def Con from 0.492 ++++++++++++++++++++++++to 0.492
Heightened Def Con from 0.492 to 0.492
Heightened Def Con from 0.493 to 0.493
Heightened Def Con from 0.493 to 0.493
Heightened Def Con from 0.494 to 0.494
Heightened Def Con from 0.494 to 0.494
Heightened Def Con from 0.495 to 0.495
Heightened Def Con from 0.495 +++++++++++++++++++to 0.495
Heightened Def Con from 0.495 to 0.495
Heightened Def Con from 0.495 to 0.495
Heightened Def Con from 0.495 to 0.495
Heightened Def Con from 0.496 +++++++++++++++++++++++++to 0.496
Heightened Def Con from 0.496 to 0.496
Heightened Def Con from 0.496 to 0.496
Heightened Def Con from 0.497 to 0.497
Heightened Def Con from 0.497 to 0.497
Heightened Def Con from 0.497 to 0.497
Heightened Def Con from 0.498 to 0.498
Heightened Def Con from 0.498 to 0.498
Heightened Def Con from 0.498 to 0.498
Heightened Def Con from 0.499 to 0.499
Heightened Def Con from 0.499 to 0.499
Heightened Def Con from 0.499 to 0.499
Heightened Def Con from 0.5 +++++++++++++++++++++++to 0.5
Heightened Def Con from 0.5 to 0.5
Heightened Def Con from 0.501 to 0.501
Heightened Def Con from 0.501 to 0.501
Heightened Def Con from 0.501 to 0.501
Heightened Def Con from 0.501 to 0.501
Heightened Def Con from 0.502 +to 0.502
Heightened Def Con from 0.502 to 0.502
Heightened Def Con from 0.503 to 0.503
Heightened Def Con from 0.503 to 0.503
Heightened Def Con from 0.503 to 0.503
Heightened Def Con from 0.504 to 0.504
Heightened Def Con from 0.504 to 0.504
Heightened Def Con from 0.504 to 0.504
Heightened Def Con from 0.504 to 0.504
Heightened Def Con from 0.505 to 0.505
Heightened Def Con from 0.505 to 0.505
Heightened Def Con from 0.505 to 0.505
Heightened Def Con from 0.506 to 0.506
Heightened Def Con from 0.506 to 0.506
Heightened Def Con from 0.507 to 0.507
Heightened Def Con from 0.507 to 0.507
Heightened Def Con from 0.507 to 0.507
Heightened Def Con from 0.507 to 0.507
Heightened Def Con from 0.508 ++++++++++++++++++++++++to 0.508
Heightened Def Con from 0.508 to 0.508
Heightened Def Con from 0.509 to 0.509
Heightened Def Con from 0.509 to 0.509
Heightened Def Con from 0.51 +to 0.51
Heightened Def Con from 0.51 to 0.51
Heightened Def Con from 0.511 to 0.511
Heightened Def Con from 0.511 to 0.511
Heightened Def Con from 0.511 to 0.511
Heightened Def Con from 0.511 to 0.511
Heightened Def Con from 0.512 ++++++++++++++++++++++++++++++to 0.512
Heightened Def Con from 0.512 to 0.512
Heightened Def Con from 0.512 +++++++++++++++++++++++++++to 0.512
Heightened Def Con from 0.512 to 0.512
Heightened Def Con from 0.512 to 0.512
Heightened Def Con from 0.512 to 0.512
Heightened Def Con from 0.512 to 0.512
Heightened Def Con from 0.512 to 0.512
Heightened Def Con from 0.514 to 0.514
Heightened Def Con from 0.514 to 0.514
Heightened Def Con from 0.514 to 0.514
Heightened Def Con from 0.515 to 0.515
Heightened Def Con from 0.515 to 0.515
Heightened Def Con from 0.515 to 0.515
Heightened Def Con from 0.515 to 0.515
Heightened Def Con from 0.516 +++++++++++++++++++++++to 0.516
Heightened Def Con from 0.516 to 0.516
Heightened Def Con from 0.516 ++++++++++++++++++++++++to 0.516
Heightened Def Con from 0.516 to 0.516
Heightened Def Con from 0.517 to 0.517
Heightened Def Con from 0.517 to 0.517
Heightened Def Con from 0.517 to 0.517
Heightened Def Con from 0.518 +++++++++++++++++to 0.518
Heightened Def Con from 0.518 ++++++++++++++++++to 0.518
Heightened Def Con from 0.518 ++++++++++++++++++to 0.518
Heightened Def Con from 0.518 ++++++++++++++++++to 0.518
Heightened Def Con from 0.518 ++++++++++++++++++to 0.518
Heightened Def Con from 0.518 +++++++++++++++++++to 0.518
Heightened Def Con from 0.518 to 0.518
Heightened Def Con from 0.519 to 0.519
Heightened Def Con from 0.519 to 0.519
Heightened Def Con from 0.519 to 0.519
Heightened Def Con from 0.52 to 0.52
Heightened Def Con from 0.52 +to 0.52
Heightened Def Con from 0.52 to 0.52
Heightened Def Con from 0.52 to 0.52
Heightened Def Con from 0.52 to 0.52
Heightened Def Con from 0.521 to 0.521
Heightened Def Con from 0.522 to 0.522
Heightened Def Con from 0.522 to 0.522
Heightened Def Con from 0.522 to 0.522
Heightened Def Con from 0.523 to 0.523
Heightened Def Con from 0.523 to 0.523
Heightened Def Con from 0.523 to 0.523
Heightened Def Con from 0.523 to 0.523
Heightened Def Con from 0.524 ++++++++++++++++++++++++to 0.524
Heightened Def Con from 0.524 to 0.524
Heightened Def Con from 0.525 to 0.525
Heightened Def Con from 0.525 to 0.525
Heightened Def Con from 0.525 to 0.525
Heightened Def Con from 0.525 to 0.525
Heightened Def Con from 0.526 to 0.526
Heightened Def Con from 0.526 to 0.526
Heightened Def Con from 0.526 to 0.526
Heightened Def Con from 0.527 to 0.527
Heightened Def Con from 0.527 +++++++++++++++++++to 0.527
Heightened Def Con from 0.527 to 0.527
Heightened Def Con from 0.528 +++++++++++++++++++++++to 0.528
Heightened Def Con from 0.528 to 0.528
Heightened Def Con from 0.528 to 0.528
Heightened Def Con from 0.529 to 0.529
Heightened Def Con from 0.529 to 0.529
Heightened Def Con from 0.53 to 0.53
Heightened Def Con from 0.53 to 0.53
Heightened Def Con from 0.53 to 0.53
Heightened Def Con from 0.531 to 0.531
Heightened Def Con from 0.531 to 0.531
Heightened Def Con from 0.531 to 0.531
Heightened Def Con from 0.532 +++++++++++++++++++++++to 0.532
Heightened Def Con from 0.532 to 0.532
Heightened Def Con from 0.533 to 0.533
Heightened Def Con from 0.533 to 0.533
Heightened Def Con from 0.534 to 0.534
Heightened Def Con from 0.534 to 0.534
Heightened Def Con from 0.534 to 0.534
Heightened Def Con from 0.535 to 0.535
Heightened Def Con from 0.535 to 0.535
Heightened Def Con from 0.535 to 0.535
Heightened Def Con from 0.535 to 0.535
Heightened Def Con from 0.536 +++++++++++++++++++++++++to 0.536
Heightened Def Con from 0.536 to 0.536
Heightened Def Con from 0.537 to 0.537
Heightened Def Con from 0.537 to 0.537
Heightened Def Con from 0.537 to 0.537
Heightened Def Con from 0.538 to 0.538
Heightened Def Con from 0.538 to 0.538
Heightened Def Con from 0.538 to 0.538
Heightened Def Con from 0.539 to 0.539
Heightened Def Con from 0.539 to 0.539
Heightened Def Con from 0.539 to 0.539
Heightened Def Con from 0.54 to 0.54
Heightened Def Con from 0.54 +++++++++++++++++to 0.54
Heightened Def Con from 0.54 to 0.54
Heightened Def Con from 0.541 to 0.541
Heightened Def Con from 0.541 to 0.541
Heightened Def Con from 0.542 to 0.542
Heightened Def Con from 0.542 to 0.542
Heightened Def Con from 0.542 to 0.542
Heightened Def Con from 0.543 to 0.543
Heightened Def Con from 0.543 to 0.543
Heightened Def Con from 0.543 to 0.543
Heightened Def Con from 0.543 to 0.543
Heightened Def Con from 0.544 ++++++++++++++++++++++++to 0.544
Heightened Def Con from 0.544 to 0.544
Heightened Def Con from 0.544 to 0.544
Heightened Def Con from 0.544 to 0.544
Heightened Def Con from 0.545 to 0.545
Heightened Def Con from 0.545 to 0.545
Heightened Def Con from 0.546 to 0.546
Heightened Def Con from 0.546 to 0.546
Heightened Def Con from 0.546 to 0.546
Heightened Def Con from 0.547 to 0.547
Heightened Def Con from 0.548 +++++++++++++++++++++++to 0.548
Heightened Def Con from 0.548 to 0.548
Heightened Def Con from 0.549 to 0.549
Heightened Def Con from 0.549 to 0.549
Heightened Def Con from 0.549 to 0.549
Heightened Def Con from 0.55 to 0.55
Heightened Def Con from 0.55 to 0.55
Heightened Def Con from 0.55 to 0.55
Heightened Def Con from 0.551 to 0.551
Heightened Def Con from 0.551 to 0.551
Heightened Def Con from 0.551 to 0.551
Heightened Def Con from 0.551 to 0.551
Heightened Def Con from 0.552 +++++++++++++++++++++++++to 0.552
Heightened Def Con from 0.552 to 0.552
Heightened Def Con from 0.552 to 0.552
Heightened Def Con from 0.553 to 0.553
Heightened Def Con from 0.553 to 0.553
Heightened Def Con from 0.553 to 0.553
Heightened Def Con from 0.554 to 0.554
Heightened Def Con from 0.554 to 0.554
Heightened Def Con from 0.554 to 0.554
Heightened Def Con from 0.555 +to 0.555
Heightened Def Con from 0.555 to 0.555
Heightened Def Con from 0.556 ++++++++++++++++++++++++to 0.556
Heightened Def Con from 0.556 to 0.556
Heightened Def Con from 0.557 to 0.557
Heightened Def Con from 0.557 to 0.557
Heightened Def Con from 0.558 to 0.558
Heightened Def Con from 0.558 to 0.558
Heightened Def Con from 0.558 to 0.558
Heightened Def Con from 0.559 to 0.559
Heightened Def Con from 0.559 to 0.559
Heightened Def Con from 0.559 to 0.559
Heightened Def Con from 0.56 ++++++++++++++++++++++++to 0.56
Heightened Def Con from 0.56 to 0.56
Heightened Def Con from 0.56 to 0.56
Heightened Def Con from 0.561 to 0.561
Heightened Def Con from 0.561 to 0.561
Heightened Def Con from 0.561 to 0.561
Heightened Def Con from 0.562 to 0.562
Heightened Def Con from 0.562 to 0.562
Heightened Def Con from 0.562 to 0.562
Heightened Def Con from 0.563 +++++++++++++++++++++++++++to 0.563
Heightened Def Con from 0.563 to 0.563
Heightened Def Con from 0.563 +++++++++++++++++++++to 0.563
Heightened Def Con from 0.563 to 0.563
Heightened Def Con from 0.563 to 0.563
Heightened Def Con from 0.564 +to 0.564
Heightened Def Con from 0.564 to 0.564
Heightened Def Con from 0.565 to 0.565
Heightened Def Con from 0.565 to 0.565
Heightened Def Con from 0.565 to 0.565
Heightened Def Con from 0.565 to 0.565
Heightened Def Con from 0.566 +to 0.566
Heightened Def Con from 0.566 to 0.566
Heightened Def Con from 0.567 to 0.567
Heightened Def Con from 0.567 to 0.567
Heightened Def Con from 0.567 to 0.567
Heightened Def Con from 0.568 ++++++++++++++++++++++++to 0.568
Heightened Def Con from 0.568 to 0.568
Heightened Def Con from 0.569 to 0.569
Heightened Def Con from 0.569 to 0.569
Heightened Def Con from 0.569 to 0.569
Heightened Def Con from 0.57 to 0.57
Heightened Def Con from 0.57 to 0.57
Heightened Def Con from 0.57 to 0.57
Heightened Def Con from 0.571 to 0.571
Heightened Def Con from 0.571 to 0.571
Heightened Def Con from 0.572 ++++++++++++++++++++++++to 0.572
Heightened Def Con from 0.572 to 0.572
Heightened Def Con from 0.573 to 0.573
Heightened Def Con from 0.573 to 0.573
Heightened Def Con from 0.573 to 0.573
Heightened Def Con from 0.574 to 0.574
Heightened Def Con from 0.574 to 0.574
Heightened Def Con from 0.574 to 0.574
Heightened Def Con from 0.575 to 0.575
Heightened Def Con from 0.575 ++++++++++++++++++++to 0.575
Heightened Def Con from 0.575 to 0.575
Heightened Def Con from 0.575 to 0.575
Heightened Def Con from 0.576 ++++++++++++++++++++++++to 0.576
Heightened Def Con from 0.576 to 0.576
Heightened Def Con from 0.576 to 0.576
Heightened Def Con from 0.576 to 0.576
Heightened Def Con from 0.576 to 0.576
Heightened Def Con from 0.577 to 0.577
Heightened Def Con from 0.577 to 0.577
Heightened Def Con from 0.578 to 0.578
Heightened Def Con from 0.578 to 0.578
Heightened Def Con from 0.578 to 0.578
Heightened Def Con from 0.579 to 0.579
Heightened Def Con from 0.58 +++++++++++++++++++++++to 0.58
Heightened Def Con from 0.58 to 0.58
Heightened Def Con from 0.581 to 0.581
Heightened Def Con from 0.582 to 0.582
Heightened Def Con from 0.582 to 0.582
Heightened Def Con from 0.582 to 0.582
Heightened Def Con from 0.583 +to 0.583
Heightened Def Con from 0.583 to 0.583
Heightened Def Con from 0.583 to 0.583
Heightened Def Con from 0.584 to 0.584
Heightened Def Con from 0.584 to 0.584
Heightened Def Con from 0.584 to 0.584
Heightened Def Con from 0.584 to 0.584
Heightened Def Con from 0.584 to 0.584
Heightened Def Con from 0.585 to 0.585
Heightened Def Con from 0.585 to 0.585
Heightened Def Con from 0.585 to 0.585
Heightened Def Con from 0.586 to 0.586
Heightened Def Con from 0.586 to 0.586
Heightened Def Con from 0.586 to 0.586
Heightened Def Con from 0.587 to 0.587
Heightened Def Con from 0.587 to 0.587
Heightened Def Con from 0.587 to 0.587
Heightened Def Con from 0.587 to 0.587
Heightened Def Con from 0.588 ++++++++++++++++++++++++to 0.588
Heightened Def Con from 0.588 to 0.588
Heightened Def Con from 0.589 to 0.589
Heightened Def Con from 0.589 to 0.589
Heightened Def Con from 0.589 to 0.589
Heightened Def Con from 0.589 to 0.589
Heightened Def Con from 0.59 to 0.59
Heightened Def Con from 0.59 to 0.59
Heightened Def Con from 0.59 to 0.59
Heightened Def Con from 0.591 ++++++++++++++++++++to 0.591
Heightened Def Con from 0.591 to 0.591
Heightened Def Con from 0.592 to 0.592
Heightened Def Con from 0.592 ++++++++++++++++++++++to 0.592
Heightened Def Con from 0.592 to 0.592
Heightened Def Con from 0.593 to 0.593
Heightened Def Con from 0.594 to 0.594
Heightened Def Con from 0.594 to 0.594
Heightened Def Con from 0.594 to 0.594
Heightened Def Con from 0.595 to 0.595
Heightened Def Con from 0.595 to 0.595
Heightened Def Con from 0.595 to 0.595
Heightened Def Con from 0.596 ++++++++++++++++++++++to 0.596
Heightened Def Con from 0.596 ++++++++++++++++++++to 0.596
Heightened Def Con from 0.596 to 0.596
Heightened Def Con from 0.596 to 0.596
Heightened Def Con from 0.597 to 0.597
Heightened Def Con from 0.597 to 0.597
Heightened Def Con from 0.597 to 0.597
Heightened Def Con from 0.598 to 0.598
Heightened Def Con from 0.598 to 0.598
Heightened Def Con from 0.598 to 0.598
Heightened Def Con from 0.599 to 0.599
Heightened Def Con from 0.599 to 0.599
Heightened Def Con from 0.599 to 0.599
Heightened Def Con from 0.599 to 0.599
Heightened Def Con from 0.6 ++++++++++++++++++++++to 0.6
Heightened Def Con from 0.6 ++++++++++++++++++++++to 0.6
Heightened Def Con from 0.6 to 0.6
Heightened Def Con from 0.6 to 0.6
Heightened Def Con from 0.601 to 0.601
Heightened Def Con from 0.601 to 0.601
Heightened Def Con from 0.601 to 0.601
Heightened Def Con from 0.602 to 0.602
Heightened Def Con from 0.602 to 0.602
Heightened Def Con from 0.602 to 0.602
Heightened Def Con from 0.603 to 0.603
Heightened Def Con from 0.603 to 0.603
Heightened Def Con from 0.603 to 0.603
Heightened Def Con from 0.604 ++++++++++++++++++++++++to 0.604
Heightened Def Con from 0.604 to 0.604
Heightened Def Con from 0.605 to 0.605
Heightened Def Con from 0.605 to 0.605
Heightened Def Con from 0.605 to 0.605
Heightened Def Con from 0.605 to 0.605
Heightened Def Con from 0.606 to 0.606
Heightened Def Con from 0.606 to 0.606
Heightened Def Con from 0.606 to 0.606
Heightened Def Con from 0.607 to 0.607
Heightened Def Con from 0.607 ++++++++++++++++++to 0.607
Heightened Def Con from 0.607 to 0.607
Heightened Def Con from 0.607 to 0.607
Heightened Def Con from 0.608 to 0.608
Heightened Def Con from 0.608 +++++++++++++++++++++++++to 0.608
Heightened Def Con from 0.608 +++++++++++++++++++++++++++to 0.608
Heightened Def Con from 0.608 to 0.608
Heightened Def Con from 0.608 to 0.608
Heightened Def Con from 0.608 to 0.608
Heightened Def Con from 0.609 to 0.609
Heightened Def Con from 0.61 to 0.61
Heightened Def Con from 0.61 to 0.61
Heightened Def Con from 0.61 to 0.61
Heightened Def Con from 0.611 to 0.611
Heightened Def Con from 0.611 to 0.611
Heightened Def Con from 0.611 to 0.611
Heightened Def Con from 0.611 to 0.611
Heightened Def Con from 0.611 to 0.611
Heightened Def Con from 0.612 +++++++++++++++++++++++to 0.612
Heightened Def Con from 0.612 to 0.612
Heightened Def Con from 0.613 to 0.613
Heightened Def Con from 0.613 to 0.613
Heightened Def Con from 0.613 to 0.613
Heightened Def Con from 0.614 to 0.614
Heightened Def Con from 0.614 to 0.614
Heightened Def Con from 0.614 to 0.614
Heightened Def Con from 0.615 to 0.615
Heightened Def Con from 0.615 to 0.615
Heightened Def Con from 0.615 to 0.615
Heightened Def Con from 0.615 to 0.615
Heightened Def Con from 0.615 to 0.615
Heightened Def Con from 0.616 ++++++++++++++++++++++++to 0.616
Heightened Def Con from 0.616 to 0.616
Heightened Def Con from 0.616 to 0.616
Heightened Def Con from 0.617 to 0.617
Heightened Def Con from 0.617 to 0.617
Heightened Def Con from 0.617 to 0.617
Heightened Def Con from 0.617 to 0.617
Heightened Def Con from 0.618 to 0.618
Heightened Def Con from 0.618 to 0.618
Heightened Def Con from 0.618 to 0.618
Heightened Def Con from 0.619 to 0.619
Heightened Def Con from 0.619 to 0.619
Heightened Def Con from 0.619 to 0.619
Heightened Def Con from 0.62 ++++++++++++++++++++++++to 0.62
Heightened Def Con from 0.62 to 0.62
Heightened Def Con from 0.621 to 0.621
Heightened Def Con from 0.621 to 0.621
Heightened Def Con from 0.621 to 0.621
Heightened Def Con from 0.621 to 0.621
Heightened Def Con from 0.622 to 0.622
Heightened Def Con from 0.622 to 0.622
Heightened Def Con from 0.622 to 0.622
Heightened Def Con from 0.623 to 0.623
Heightened Def Con from 0.623 to 0.623
Heightened Def Con from 0.623 to 0.623
Heightened Def Con from 0.624 to 0.624
Heightened Def Con from 0.624 +++++++++++++++++++++++to 0.624
Heightened Def Con from 0.624 to 0.624
Heightened Def Con from 0.624 to 0.624
Heightened Def Con from 0.625 to 0.625
Heightened Def Con from 0.625 to 0.625
Heightened Def Con from 0.625 to 0.625
Heightened Def Con from 0.626 to 0.626
Heightened Def Con from 0.626 to 0.626
Heightened Def Con from 0.626 to 0.626
Heightened Def Con from 0.627 to 0.627
Heightened Def Con from 0.627 to 0.627
Heightened Def Con from 0.627 to 0.627
Heightened Def Con from 0.627 to 0.627
Heightened Def Con from 0.628 +to 0.628
Heightened Def Con from 0.629 to 0.629
Heightened Def Con from 0.629 to 0.629
Heightened Def Con from 0.629 to 0.629
Heightened Def Con from 0.63 to 0.63
Heightened Def Con from 0.63 to 0.63
Heightened Def Con from 0.63 to 0.63
Heightened Def Con from 0.631 to 0.631
Heightened Def Con from 0.631 to 0.631
[...]
Heightened Def Con from 0.871 to 0.871
Heightened Def Con from 0.871 to 0.871
Heightened Def Con from 0.871 to 0.871
Heightened Def Con from 0.872 +++++++++++++++++++++++++to 0.872
Heightened Def Con from 0.872 to 0.872
Heightened Def Con from 0.872 to 0.872
Heightened Def Con from 0.873 to 0.873
Heightened Def Con from 0.874 to 0.874
Heightened Def Con from 0.874 to 0.874
Heightened Def Con from 0.874 to 0.874
Heightened Def Con from 0.875 to 0.875
Heightened Def Con from 0.875 to 0.875
Heightened Def Con from 0.875 to 0.875
Heightened Def Con from 0.876 ++++++++++++++++++++++++to 0.876
Heightened Def Con from 0.876 to 0.876
Heightened Def Con from 0.877 to 0.877
Heightened Def Con from 0.877 to 0.877
Heightened Def Con from 0.877 to 0.877
Heightened Def Con from 0.877 to 0.877
Heightened Def Con from 0.878 to 0.878
Heightened Def Con from 0.878 to 0.878
Heightened Def Con from 0.878 to 0.878
Heightened Def Con from 0.879 to 0.879
Heightened Def Con from 0.879 +++++++++++++++++to 0.879
Heightened Def Con from 0.879 to 0.879
Heightened Def Con from 0.88 ++++++++++++++++++++++++to 0.88
Heightened Def Con from 0.88 to 0.88
Heightened Def Con from 0.88 to 0.88
Heightened Def Con from 0.881 to 0.881
Heightened Def Con from 0.881 to 0.881
Heightened Def Con from 0.881 to 0.881
Heightened Def Con from 0.882 to 0.882
Heightened Def Con from 0.882 to 0.882
Heightened Def Con from 0.882 to 0.882
Heightened Def Con from 0.883 to 0.883
Heightened Def Con from 0.883 to 0.883
Heightened Def Con from 0.883 to 0.883
Heightened Def Con from 0.883 to 0.883
Heightened Def Con from 0.884 ++++++++++++++++++++++to 0.884
Heightened Def Con from 0.884 ++++++++++++++++++++++to 0.884
Heightened Def Con from 0.884 to 0.884
Heightened Def Con from 0.884 to 0.884
Heightened Def Con from 0.885 to 0.885
Heightened Def Con from 0.886 to 0.886
Heightened Def Con from 0.886 to 0.886
Heightened Def Con from 0.887 to 0.887
Heightened Def Con from 0.887 to 0.887
Heightened Def Con from 0.887 to 0.887
Heightened Def Con from 0.887 to 0.887
Heightened Def Con from 0.888 ++++++++++++++++++++++to 0.888
Heightened Def Con from 0.888 +++++++++++++++++++++++to 0.888
Heightened Def Con from 0.888 to 0.888
Heightened Def Con from 0.889 to 0.889
Heightened Def Con from 0.889 to 0.889
Heightened Def Con from 0.89 +++++++++++++++++++++to 0.89
Heightened Def Con from 0.89 to 0.89
Heightened Def Con from 0.891 to 0.891
Heightened Def Con from 0.891 to 0.891
Heightened Def Con from 0.891 to 0.891
Heightened Def Con from 0.891 to 0.891
Heightened Def Con from 0.891 to 0.891
Heightened Def Con from 0.892 ++++++++++++++++++++++++to 0.892
Heightened Def Con from 0.892 to 0.892
Heightened Def Con from 0.893 to 0.893
Heightened Def Con from 0.893 to 0.893
Heightened Def Con from 0.893 to 0.893
Heightened Def Con from 0.893 to 0.893
Heightened Def Con from 0.894 to 0.894
Heightened Def Con from 0.894 to 0.894
Heightened Def Con from 0.895 to 0.895
Heightened Def Con from 0.895 to 0.895
Heightened Def Con from 0.895 to 0.895
Heightened Def Con from 0.895 to 0.895
Heightened Def Con from 0.896 to 0.896
Heightened Def Con from 0.896 to 0.896
Heightened Def Con from 0.896 to 0.896
Heightened Def Con from 0.896 to 0.896
Heightened Def Con from 0.896 to 0.896
Heightened Def Con from 0.896 to 0.896
Heightened Def Con from 0.898 +to 0.898
Heightened Def Con from 0.898 to 0.898
Heightened Def Con from 0.899 to 0.899
Heightened Def Con from 0.9 ++++++++++++++++++++++++to 0.9
Heightened Def Con from 0.9 to 0.9
Heightened Def Con from 0.901 ++++++++++++++++++++to 0.901
Heightened Def Con from 0.901 to 0.901
Heightened Def Con from 0.902 +++++++++++++++++++++++to 0.902
Heightened Def Con from 0.902 to 0.902
Heightened Def Con from 0.903 to 0.903
Heightened Def Con from 0.903 to 0.903
Heightened Def Con from 0.903 to 0.903
Heightened Def Con from 0.903 to 0.903
Heightened Def Con from 0.904 ++++++++++++++++++++++++to 0.904
Heightened Def Con from 0.904 to 0.904
Heightened Def Con from 0.905 to 0.905
Heightened Def Con from 0.906 to 0.906
Heightened Def Con from 0.906 to 0.906
Heightened Def Con from 0.906 to 0.906
Heightened Def Con from 0.907 to 0.907
Heightened Def Con from 0.907 to 0.907
Heightened Def Con from 0.907 to 0.907
Heightened Def Con from 0.907 to 0.907
Heightened Def Con from 0.908 ++++++++++++++++++++++++to 0.908
Heightened Def Con from 0.908 to 0.908
Heightened Def Con from 0.909 to 0.909
Heightened Def Con from 0.909 to 0.909
Heightened Def Con from 0.909 to 0.909
Heightened Def Con from 0.909 to 0.909
Heightened Def Con from 0.909 to 0.909
Heightened Def Con from 0.91 to 0.91
Heightened Def Con from 0.91 to 0.91
Heightened Def Con from 0.91 to 0.91
Heightened Def Con from 0.911 ++++++++++++++++to 0.911
Heightened Def Con from 0.911 to 0.911
Heightened Def Con from 0.911 to 0.911
Heightened Def Con from 0.912 ++++++++++++++++++++++++to 0.912
Heightened Def Con from 0.912 to 0.912
Heightened Def Con from 0.912 to 0.912
Heightened Def Con from 0.913 to 0.913
Heightened Def Con from 0.913 to 0.913
Heightened Def Con from 0.914 to 0.914
Heightened Def Con from 0.914 to 0.914
Heightened Def Con from 0.914 to 0.914
Heightened Def Con from 0.915 to 0.915
Heightened Def Con from 0.915 to 0.915
Heightened Def Con from 0.915 to 0.915
Heightened Def Con from 0.916 ++++++++++++++++++++++to 0.916
Heightened Def Con from 0.916 +++++++++++++++++++++to 0.916
Heightened Def Con from 0.916 to 0.916
Heightened Def Con from 0.916 to 0.916
Heightened Def Con from 0.917 to 0.917
Heightened Def Con from 0.917 to 0.917
Heightened Def Con from 0.918 to 0.918
Heightened Def Con from 0.918 to 0.918
Heightened Def Con from 0.918 to 0.918
Heightened Def Con from 0.919 to 0.919
Heightened Def Con from 0.919 to 0.919
Heightened Def Con from 0.919 to 0.919
Heightened Def Con from 0.919 to 0.919
Heightened Def Con from 0.919 to 0.919
Heightened Def Con from 0.92 +++++++++++++++++++++++++to 0.92
Heightened Def Con from 0.92 to 0.92
Heightened Def Con from 0.921 to 0.921
Heightened Def Con from 0.921 to 0.921
Heightened Def Con from 0.921 to 0.921
Heightened Def Con from 0.922 to 0.922
Heightened Def Con from 0.922 to 0.922
Heightened Def Con from 0.922 +++++++++++++++++++++to 0.922
Heightened Def Con from 0.922 to 0.922
Heightened Def Con from 0.923 to 0.923
Heightened Def Con from 0.923 to 0.923
Heightened Def Con from 0.923 to 0.923
Heightened Def Con from 0.924 +++++++++++++++++++++++to 0.924
Heightened Def Con from 0.924 to 0.924
Heightened Def Con from 0.925 to 0.925
Heightened Def Con from 0.925 to 0.925
Heightened Def Con from 0.926 to 0.926
Heightened Def Con from 0.926 to 0.926
Heightened Def Con from 0.926 to 0.926
Heightened Def Con from 0.927 to 0.927
Heightened Def Con from 0.927 +++++++++++++++++++to 0.927
Heightened Def Con from 0.927 to 0.927
Heightened Def Con from 0.927 to 0.927
Heightened Def Con from 0.928 +++++++++++++++++++++to 0.928
Heightened Def Con from 0.928 to 0.928
Heightened Def Con from 0.928 to 0.928
Heightened Def Con from 0.928 to 0.928
Heightened Def Con from 0.928 to 0.928
Heightened Def Con from 0.929 to 0.929
Heightened Def Con from 0.93 to 0.93
Heightened Def Con from 0.93 to 0.93
Heightened Def Con from 0.93 to 0.93
Heightened Def Con from 0.931 to 0.931
Heightened Def Con from 0.931 to 0.931
Heightened Def Con from 0.931 to 0.931
Heightened Def Con from 0.932 +++++++++++++++++++++++to 0.932
Heightened Def Con from 0.932 to 0.932
Heightened Def Con from 0.933 to 0.933
Heightened Def Con from 0.933 to 0.933
Heightened Def Con from 0.933 to 0.933
Heightened Def Con from 0.934 +++++++++++++++++++++++to 0.934
Heightened Def Con from 0.934 to 0.934
Heightened Def Con from 0.935 to 0.935
Heightened Def Con from 0.935 to 0.935
Heightened Def Con from 0.935 to 0.935
Heightened Def Con from 0.935 to 0.935
Heightened Def Con from 0.936 +++++++++++++++++++++++++to 0.936
Heightened Def Con from 0.936 to 0.936
Heightened Def Con from 0.936 to 0.936
Heightened Def Con from 0.937 to 0.937
Heightened Def Con from 0.938 +to 0.938
Heightened Def Con from 0.938 to 0.938
Heightened Def Con from 0.939 to 0.939
Heightened Def Con from 0.939 to 0.939
Heightened Def Con from 0.939 to 0.939
Heightened Def Con from 0.939 to 0.939
Heightened Def Con from 0.94 ++++++++++++++++++++++++to 0.94
Heightened Def Con from 0.94 to 0.94
Heightened Def Con from 0.941 to 0.941
Heightened Def Con from 0.941 to 0.941
Heightened Def Con from 0.941 ++++++++++++++++++++++++++++to 0.941
Heightened Def Con from 0.941 to 0.941
Heightened Def Con from 0.941 to 0.941
Heightened Def Con from 0.941 to 0.941
Heightened Def Con from 0.942 to 0.942
Heightened Def Con from 0.942 to 0.942
Heightened Def Con from 0.942 to 0.942
Heightened Def Con from 0.943 to 0.943
Heightened Def Con from 0.943 +++++++++++++to 0.943
Heightened Def Con from 0.943 +++++++++++++++to 0.943
Heightened Def Con from 0.943 to 0.943
Heightened Def Con from 0.943 to 0.943
Heightened Def Con from 0.944 ++++++++++++++++++++++++to 0.944
Heightened Def Con from 0.944 to 0.944
Heightened Def Con from 0.944 to 0.944
Heightened Def Con from 0.944 to 0.944
Heightened Def Con from 0.944 +++++++++++++++++++to 0.944
Heightened Def Con from 0.944 to 0.944
Heightened Def Con from 0.944 to 0.944
Heightened Def Con from 0.945 to 0.945
Heightened Def Con from 0.945 to 0.945
Heightened Def Con from 0.945 to 0.945
Heightened Def Con from 0.946 ++++++++++++++++++++to 0.946
Heightened Def Con from 0.946 ++++++++++++++++++++to 0.946
Heightened Def Con from 0.946 ++++++++++++++++++++to 0.946
Heightened Def Con from 0.946 ++++++++++++++++++++to 0.946
Heightened Def Con from 0.946 ++++++++++++++++++++++to 0.946
Heightened Def Con from 0.946 to 0.946
Heightened Def Con from 0.947 to 0.947
Heightened Def Con from 0.947 to 0.947
Heightened Def Con from 0.947 to 0.947
Heightened Def Con from 0.948 +to 0.948
Heightened Def Con from 0.948 to 0.948
Heightened Def Con from 0.949 to 0.949
Heightened Def Con from 0.949 to 0.949
Heightened Def Con from 0.949 to 0.949
Heightened Def Con from 0.95 to 0.95
Heightened Def Con from 0.95 to 0.95
Heightened Def Con from 0.951 to 0.951
Heightened Def Con from 0.951 to 0.951
Heightened Def Con from 0.951 to 0.951
Heightened Def Con from 0.952 +++++++++++++++++++++++++to 0.952
Heightened Def Con from 0.952 to 0.952
Heightened Def Con from 0.953 to 0.953
Heightened Def Con from 0.953 to 0.953
Heightened Def Con from 0.953 to 0.953
Heightened Def Con from 0.953 to 0.953
Heightened Def Con from 0.954 ++++++++++++++++++++++to 0.954
Heightened Def Con from 0.954 to 0.954
Heightened Def Con from 0.954 to 0.954
Heightened Def Con from 0.955 to 0.955
Heightened Def Con from 0.956 +++++++++++++++++++++++to 0.956
Heightened Def Con from 0.956 to 0.956
Heightened Def Con from 0.957 to 0.957
Heightened Def Con from 0.957 to 0.957
Heightened Def Con from 0.957 to 0.957
Heightened Def Con from 0.957 to 0.957
Heightened Def Con from 0.957 to 0.957
Heightened Def Con from 0.958 +++++++++++++++++++++++to 0.958
Heightened Def Con from 0.958 to 0.958
Heightened Def Con from 0.959 to 0.959
Heightened Def Con from 0.959 to 0.959
Heightened Def Con from 0.959 to 0.959
Heightened Def Con from 0.959 to 0.959
Heightened Def Con from 0.959 to 0.959
Heightened Def Con from 0.96 ++++++++++++++++++++++++to 0.96
Heightened Def Con from 0.96 to 0.96
Heightened Def Con from 0.96 to 0.96
Heightened Def Con from 0.96 to 0.96
Heightened Def Con from 0.961 to 0.961
Heightened Def Con from 0.961 to 0.961
Heightened Def Con from 0.961 to 0.961
Heightened Def Con from 0.962 +to 0.962
Heightened Def Con from 0.963 to 0.963
Heightened Def Con from 0.964 to 0.964
Heightened Def Con from 0.964 to 0.964
Heightened Def Con from 0.964 to 0.964
Heightened Def Con from 0.965 to 0.965
Heightened Def Con from 0.965 to 0.965
Heightened Def Con from 0.965 to 0.965
Heightened Def Con from 0.966 to 0.966
Heightened Def Con from 0.966 to 0.966
Heightened Def Con from 0.966 to 0.966
Heightened Def Con from 0.967 to 0.967
Heightened Def Con from 0.967 to 0.967
Heightened Def Con from 0.967 to 0.967
Heightened Def Con from 0.967 to 0.967
Heightened Def Con from 0.968 to 0.968
Heightened Def Con from 0.968 to 0.968
Heightened Def Con from 0.968 to 0.968
Heightened Def Con from 0.968 to 0.968
Heightened Def Con from 0.969 to 0.969
Heightened Def Con from 0.969 to 0.969
Heightened Def Con from 0.969 to 0.969
Heightened Def Con from 0.97 to 0.97
Heightened Def Con from 0.97 to 0.97
Heightened Def Con from 0.97 to 0.97
Heightened Def Con from 0.971 to 0.971
Heightened Def Con from 0.971 to 0.971
Heightened Def Con from 0.971 to 0.971
Heightened Def Con from 0.972 to 0.972
Heightened Def Con from 0.972 +to 0.972
Heightened Def Con from 0.972 to 0.972
Heightened Def Con from 0.973 to 0.973
Heightened Def Con from 0.973 to 0.973
Heightened Def Con from 0.973 to 0.973
Heightened Def Con from 0.973 to 0.973
Heightened Def Con from 0.974 to 0.974
Heightened Def Con from 0.974 to 0.974
Heightened Def Con from 0.974 to 0.974
Heightened Def Con from 0.975 +++++++++++++++++++to 0.975
Heightened Def Con from 0.975 to 0.975
Heightened Def Con from 0.975 to 0.975
Heightened Def Con from 0.976 ++++++++++++++++++++++++to 0.976
Heightened Def Con from 0.976 to 0.976
Heightened Def Con from 0.976 to 0.976
Heightened Def Con from 0.977 to 0.977
Heightened Def Con from 0.977 to 0.977
Heightened Def Con from 0.977 to 0.977
Heightened Def Con from 0.978 to 0.978
Heightened Def Con from 0.978 to 0.978
Heightened Def Con from 0.978 to 0.978
Heightened Def Con from 0.979 to 0.979
Heightened Def Con from 0.979 ++++++++++++++++++to 0.979
Heightened Def Con from 0.979 to 0.979
Heightened Def Con from 0.98 +++++++++++++++++++++++to 0.98
Heightened Def Con from 0.98 to 0.98
Heightened Def Con from 0.981 to 0.981
Heightened Def Con from 0.981 to 0.981
Heightened Def Con from 0.981 to 0.981
Heightened Def Con from 0.982 to 0.982
Heightened Def Con from 0.982 to 0.982
Heightened Def Con from 0.982 to 0.982
Heightened Def Con from 0.983 to 0.983
Heightened Def Con from 0.983 to 0.983
Heightened Def Con from 0.983 to 0.983
Heightened Def Con from 0.983 to 0.983
Heightened Def Con from 0.984 to 0.984
Heightened Def Con from 0.984 ++++++++++++++++++++++to 0.984
Heightened Def Con from 0.984 to 0.984
Heightened Def Con from 0.984 to 0.984
Heightened Def Con from 0.984 to 0.984
Heightened Def Con from 0.985 to 0.985
Heightened Def Con from 0.985 to 0.985
Heightened Def Con from 0.985 to 0.985
Heightened Def Con from 0.986 to 0.986
Heightened Def Con from 0.986 to 0.986
Heightened Def Con from 0.986 to 0.986
Heightened Def Con from 0.987 to 0.987
Heightened Def Con from 0.988 to 0.988
Heightened Def Con from 0.988 to 0.988
Heightened Def Con from 0.988 to 0.988
Heightened Def Con from 0.989 to 0.989
Heightened Def Con from 0.989 to 0.989
Heightened Def Con from 0.989 to 0.989
Heightened Def Con from 0.989 to 0.989
Heightened Def Con from 0.99 +to 0.99
Heightened Def Con from 0.99 to 0.99
Heightened Def Con from 0.991 to 0.991
Heightened Def Con from 0.991 ++++++++++++++++++to 0.991
Heightened Def Con from 0.991 to 0.991
Heightened Def Con from 0.991 to 0.991
Heightened Def Con from 0.991 to 0.991
Heightened Def Con from 0.992 to 0.992
Heightened Def Con from 0.992 to 0.992
Heightened Def Con from 0.992 to 0.992
Heightened Def Con from 0.992 to 0.992
Heightened Def Con from 0.993 to 0.993
Heightened Def Con from 0.994 to 0.994
Heightened Def Con from 0.994 to 0.994
Heightened Def Con from 0.994 to 0.994
Heightened Def Con from 0.995 +++++++++++++++++++++++++++to 0.995
Heightened Def Con from 0.995 ++++++++++++++++++to 0.995
Heightened Def Con from 0.995 to 0.995
Heightened Def Con from 0.995 to 0.995
Heightened Def Con from 0.995 to 0.995
Heightened Def Con from 0.996 +++++++++++++++++++++++to 0.996
Heightened Def Con from 0.996 to 0.996
Heightened Def Con from 0.997 to 0.997
Heightened Def Con from 0.997 to 0.997
Heightened Def Con from 0.997 to 0.997
Heightened Def Con from 0.998 to 0.998
Heightened Def Con from 0.998 to 0.998
Heightened Def Con from 0.998 to 0.998
Heightened Def Con from 0.999 to 0.999
Heightened Def Con from 0.999 to 0.999
Heightened Def Con from 0.999 to 0.999
Heightened Def Con from 0.999 to 0.999
Heightened Def Con from 1 +++++++++++++++++++++++++to 1
Heightened Def Con from 1 to 1
Heightened Def Con from 1.001 to 1.001
Heightened Def Con from 1.001 to 1.001
Heightened Def Con from 1.001 to 1.001
Heightened Def Con from 1.001 to 1.001
Heightened Def Con from 1.002 to 1.002
Heightened Def Con from 1.002 to 1.002
Heightened Def Con from 1.002 to 1.002
Heightened Def Con from 1.003 ++++++++++++++++to 1.003
Heightened Def Con from 1.003 to 1.003
Heightened Def Con from 1.003 to 1.003
Heightened Def Con from 1.003 to 1.003
Heightened Def Con from 1.004 to 1.004
Heightened Def Con from 1.004 to 1.004
Heightened Def Con from 1.004 to 1.004
Heightened Def Con from 1.005 to 1.005
Heightened Def Con from 1.005 to 1.005
Heightened Def Con from 1.005 to 1.005
Heightened Def Con from 1.005 to 1.005
Heightened Def Con from 1.006 +to 1.006
Heightened Def Con from 1.006 to 1.006
Heightened Def Con from 1.007 +++++++++++++++++++to 1.007
Heightened Def Con from 1.007 to 1.007
Heightened Def Con from 1.007 to 1.007
Heightened Def Con from 1.007 to 1.007
Heightened Def Con from 1.008 ++++++++++++++++++++++++to 1.008
Heightened Def Con from 1.008 to 1.008
Heightened Def Con from 1.009 to 1.009
Heightened Def Con from 1.009 to 1.009
Heightened Def Con from 1.009 to 1.009
Heightened Def Con from 1.01 to 1.01
Heightened Def Con from 1.01 to 1.01
Heightened Def Con from 1.01 to 1.01
Heightened Def Con from 1.011 +to 1.011
Heightened Def Con from 1.011 to 1.011
Heightened Def Con from 1.012 +to 1.012
Heightened Def Con from 1.012 to 1.012
Heightened Def Con from 1.013 to 1.013
Heightened Def Con from 1.014 to 1.014
Heightened Def Con from 1.014 to 1.014
Heightened Def Con from 1.015 +to 1.015
Heightened Def Con from 1.015 to 1.015
Heightened Def Con from 1.016 +++++++++++++++++++++++to 1.016
Heightened Def Con from 1.016 to 1.016
Heightened Def Con from 1.017 to 1.017
Heightened Def Con from 1.017 to 1.017
Heightened Def Con from 1.017 to 1.017
Heightened Def Con from 1.017 to 1.017
Heightened Def Con from 1.018 to 1.018
Heightened Def Con from 1.018 to 1.018
Heightened Def Con from 1.019 +to 1.019
Heightened Def Con from 1.019 to 1.019
Heightened Def Con from 1.019 to 1.019
Heightened Def Con from 1.02 ++++++++++++++++++++++++to 1.02
Heightened Def Con from 1.02 to 1.02
Heightened Def Con from 1.021 to 1.021
Heightened Def Con from 1.021 to 1.021
Heightened Def Con from 1.022 +to 1.022
Heightened Def Con from 1.022 to 1.022
Heightened Def Con from 1.023 +to 1.023
Heightened Def Con from 1.023 to 1.023
Heightened Def Con from 1.023 to 1.023
Heightened Def Con from 1.023 to 1.023
Heightened Def Con from 1.024 to 1.024
Heightened Def Con from 1.024 to 1.024
Heightened Def Con from 1.024 to 1.024
Heightened Def Con from 1.024 to 1.024
Heightened Def Con from 1.024 to 1.024
Heightened Def Con from 1.024 to 1.024
Heightened Def Con from 1.024 to 1.024
Heightened Def Con from 1.024 to 1.024
Heightened Def Con from 1.026 to 1.026
Heightened Def Con from 1.026 to 1.026
Heightened Def Con from 1.027 to 1.027
Heightened Def Con from 1.027 to 1.027
Heightened Def Con from 1.027 to 1.027
Heightened Def Con from 1.028 +++++++++++++++++++++++to 1.028
Heightened Def Con from 1.028 to 1.028
Heightened Def Con from 1.029 to 1.029
Heightened Def Con from 1.029 to 1.029

Date: Tue Aug 04 22:56:32 2020
Total elapsed time: 11575.370 seconds.

tnom = 27
temp = 27
method = modified trap
totiter = 2972970
traniter = 2972938
tranpoints = 569129
accept = 368281
rejected = 212046
matrix size = 5138
fillins = 9486
solver = Normal
Thread vector: 7297.1/2284.5[8] 1531.1/521.5[8] 932.4/621.7[8] 56.0/40.2[6]  2592/500
Matrix Compiler1: 1.09 MB object code size  959.2/646.9/[501.3]
Matrix Compiler2: 677.72 KB object code size  432.3/377.9/[111.0]

