Circuit: * C:\Users\ashut\Desktop\DAC\work\my\3-bit-dac\3_bit_dac.asc

Ignoring BSIM parameter XL
Ignoring BSIM parameter XW
Ignoring BSIM parameter XL
Ignoring BSIM parameter XW
Limiting rise time of source v§d2 to 0.0004
Limiting fall time of source v§d2 to 0.0004
Limiting rise time of source v§d1 to 0.0002
Limiting fall time of source v§d1 to 0.0002
Limiting rise time of source v§d0 to 0.0001
Limiting fall time of source v§d0 to 0.0001
Warning: Pd = 0 is less than W.
Warning: Ps = 0 is less than W.
Warning: Pd = 0 is less than W.
Warning: Ps = 0 is less than W.
Direct Newton iteration for .op point succeeded.

Date: Sun Jul 26 12:39:45 2020
Total elapsed time: 0.472 seconds.

tnom = 27
temp = 27
method = modified trap
totiter = 5847
traniter = 5836
tranpoints = 2813
accept = 2304
rejected = 509
matrix size = 44
fillins = 26
solver = Normal
Thread vector: 51.7/28.2[4] 9.6/7.6[4] 3.5/4.8[1] 0.4/3.4[1]  2592/500
Matrix Compiler1: 5.00 KB object code size  2.4/1.1/[0.6]
Matrix Compiler2: 5.06 KB object code size  1.1/1.2/[0.6]

