Circuit: * C:\Users\ashut\Desktop\DAC\work\Potentiometric DAC\9-bit-dac\9_bit_dac.asc

Ignoring BSIM parameter XL
Ignoring BSIM parameter XW
Ignoring BSIM parameter XL
Ignoring BSIM parameter XW
Limiting rise time of source v§d7 to 0.0128
Limiting fall time of source v§d7 to 0.0128
Limiting rise time of source v§d6 to 0.0064
Limiting fall time of source v§d6 to 0.0064
Limiting rise time of source v§d5 to 0.0032
Limiting fall time of source v§d5 to 0.0032
Limiting rise time of source v§d8 to 0.0256
Limiting fall time of source v§d8 to 0.0256
Limiting rise time of source v§d4 to 0.0016
Limiting fall time of source v§d4 to 0.0016
Limiting rise time of source v§d2 to 0.0004
Limiting fall time of source v§d2 to 0.0004
Limiting rise time of source v§d3 to 0.0008
Limiting fall time of source v§d3 to 0.0008
Limiting rise time of source v§d1 to 0.0002
Limiting fall time of source v§d1 to 0.0002
Limiting rise time of source v§d0 to 0.0001
Limiting fall time of source v§d0 to 0.0001
Warning: Pd = 0 is less than W.
Warning: Ps = 0 is less than W.
Warning: Pd = 0 is less than W.
Warning: Ps = 0 is less than W.
Early termination of direct N-R iteration.
Direct Newton iteration failed to find .op point.  (Use ".option noopiter" to skip.)
Starting Gmin stepping
Gmin = 10
Gmin = 1.07374
Gmin = 0.115292
Gmin = 0.0123794
Gmin = 0.00132923
Gmin = 0.000142725
Gmin = 1.5325e-005
Gmin = 1.6455e-006
Gmin = 1.76685e-007
Gmin = 1.89714e-008
Gmin = 2.03704e-009
Gmin = 2.18725e-010
Gmin = 2.34854e-011
Gmin = 2.52173e-012
Gmin = 2.70769e-013
Gmin = 0
Gmin stepping succeeded in finding the operating point.


Date: Sun Jul 26 15:44:24 2020
Total elapsed time: 25.514 seconds.

tnom = 27
temp = 27
method = modified trap
totiter = 12678
traniter = 12239
tranpoints = 6016
accept = 5527
rejected = 489
matrix size = 2702
fillins = 5638
solver = Normal
Thread vector: 1948.9/1116.7[8] 1049.4/169.3[8] 543.2/170.9[8] 32.5/21.8[7]  2592/500
Matrix Compiler1: 668.13 KB object code size  606.7/291.5/[194.3]
Matrix Compiler2: 414.24 KB object code size  230.5/186.1/[54.4]

