Circuit: * D:\DAC\DAC\Potentiometric DAC different kind of switch - koi matlab ka nahi hai ye wala- ---- par ab hai. chota switch, no resizing, ek resistor uda diya, output best abhi tak ka - alag try naya 1236 - Copy\5-bit-dac\5_bit_dac.asc

Ignoring BSIM parameter XL
Ignoring BSIM parameter XW
Ignoring BSIM parameter XL
Ignoring BSIM parameter XW
Warning: Pd = 0 is less than W.
Warning: Ps = 0 is less than W.
Warning: Pd = 0 is less than W.
Warning: Ps = 0 is less than W.
Direct Newton iteration for .op point succeeded.
Heightened Def Con from 0.0001 +++++to 0.0001
Heightened Def Con from 0.0001 to 0.0001
Heightened Def Con from 0.0001 to 0.000100002
Heightened Def Con from 0.0002 to 0.0002
Heightened Def Con from 0.0002 ++++++++++++++++++++++++++to 0.000200011
Heightened Def Con from 0.000200011 to 0.000200018
Heightened Def Con from 0.0003 to 0.000300017
Heightened Def Con from 0.0004 to 0.0004
Heightened Def Con from 0.0004 to 0.0004
Heightened Def Con from 0.0004 to 0.000400001
Heightened Def Con from 0.000400002 to 0.000400019
Heightened Def Con from 0.0005 to 0.000500003
Heightened Def Con from 0.0006 to 0.000600001
Heightened Def Con from 0.000600001 to 0.000600015
Heightened Def Con from 0.0007 to 0.000700016
Heightened Def Con from 0.0008 to 0.0008
Heightened Def Con from 0.0008 to 0.000800002
Heightened Def Con from 0.000800002 to 0.000800024
Heightened Def Con from 0.0009 to 0.000900003
Heightened Def Con from 0.001 to 0.001
Heightened Def Con from 0.001 to 0.001
Heightened Def Con from 0.0011 to 0.00110002
Heightened Def Con from 0.0012 to 0.0012
Heightened Def Con from 0.0012 to 0.0012
Heightened Def Con from 0.00120001 to 0.00120002
Heightened Def Con from 0.0013 to 0.0013
Heightened Def Con from 0.0013 to 0.00130002
Heightened Def Con from 0.0014 to 0.0014
Heightened Def Con from 0.0014 to 0.00140002
Heightened Def Con from 0.0015 to 0.00150002
Heightened Def Con from 0.0016 to 0.0016
Heightened Def Con from 0.0016 ++++++++++++++++++++++++++++to 0.00160001
Heightened Def Con from 0.00160001 to 0.00160003
Heightened Def Con from 0.0017 to 0.0017
Heightened Def Con from 0.0018 to 0.0018
Heightened Def Con from 0.0018 to 0.00180002
Heightened Def Con from 0.0019 to 0.00190002
Heightened Def Con from 0.002 to 0.002
Heightened Def Con from 0.002 to 0.002
Heightened Def Con from 0.002 to 0.00200002
Heightened Def Con from 0.0021 to 0.0021
Heightened Def Con from 0.0022 to 0.0022
Heightened Def Con from 0.0022 to 0.00220002
Heightened Def Con from 0.0023 to 0.00230002
Heightened Def Con from 0.0024 to 0.0024
Heightened Def Con from 0.0024 to 0.00240002
Heightened Def Con from 0.0025 to 0.0025
Heightened Def Con from 0.0026 to 0.0026
Heightened Def Con from 0.0026 to 0.0026
Heightened Def Con from 0.0027 to 0.00270002
Heightened Def Con from 0.0028 to 0.0028
Heightened Def Con from 0.0028 to 0.0028
Heightened Def Con from 0.0028 to 0.00280002
Heightened Def Con from 0.0029 to 0.0029
Heightened Def Con from 0.0029 to 0.00290001
Heightened Def Con from 0.003 to 0.003
Heightened Def Con from 0.003 to 0.00300002
Heightened Def Con from 0.0031 to 0.00310002

Date: Wed Aug 19 16:22:50 2020
Total elapsed time: 2.103 seconds.

tnom = 27
temp = 27
method = modified trap
totiter = 40582
traniter = 40560
tranpoints = 9521
accept = 7065
rejected = 2573
matrix size = 167
fillins = 222
solver = Normal
Thread vector: 199.2/39.5[8] 42.6/12.6[8] 15.7/8.4[8] 1.3/6.8[1]  2592/500
Matrix Compiler1: 28.49 KB object code size  14.3/8.7/[3.5]
Matrix Compiler2: 19.93 KB object code size  5.0/7.3/[1.7]

