Circuit: * C:\Users\ashut\Desktop\DAC\work\my\latest\2_bit_dac.asc

Ignoring BSIM parameter XL
Ignoring BSIM parameter XW
Ignoring BSIM parameter XL
Ignoring BSIM parameter XW
Limiting rise time of source v3 to 0.0001
Limiting fall time of source v3 to 0.0001
Limiting rise time of source v2 to 0.0002
Limiting fall time of source v2 to 0.0002
Warning: Pd = 0 is less than W.
Warning: Ps = 0 is less than W.
Warning: Pd = 0 is less than W.
Warning: Ps = 0 is less than W.
Direct Newton iteration for .op point succeeded.

Date: Sun Jul 26 11:42:01 2020
Total elapsed time: 0.748 seconds.

tnom = 27
temp = 27
method = modified trap
totiter = 3680
traniter = 3669
tranpoints = 1788
accept = 1547
rejected = 241
matrix size = 21
fillins = 4
solver = Normal
Matrix Compiler1: 1.63 KB object code size  0.3/0.2/[0.1]
Matrix Compiler2: 2.10 KB object code size  0.2/0.3/[0.2]

