Circuit: * C:\Users\ashut\Desktop\DAC\work\Potentiometric DAC\8-bit-dac\8_bit_dac.asc

Ignoring BSIM parameter XL
Ignoring BSIM parameter XW
Ignoring BSIM parameter XL
Ignoring BSIM parameter XW
Limiting rise time of source v§d6 to 0.0064
Limiting fall time of source v§d6 to 0.0064
Limiting rise time of source v§d5 to 0.0032
Limiting fall time of source v§d5 to 0.0032
Limiting rise time of source v§d7 to 0.0128
Limiting fall time of source v§d7 to 0.0128
Limiting rise time of source v§d4 to 0.0016
Limiting fall time of source v§d4 to 0.0016
Limiting rise time of source v§d2 to 0.0004
Limiting fall time of source v§d2 to 0.0004
Limiting rise time of source v§d3 to 0.0008
Limiting fall time of source v§d3 to 0.0008
Limiting rise time of source v§d1 to 0.0002
Limiting fall time of source v§d1 to 0.0002
Limiting rise time of source v§d0 to 0.0001
Limiting fall time of source v§d0 to 0.0001
Warning: Pd = 0 is less than W.
Warning: Ps = 0 is less than W.
Warning: Pd = 0 is less than W.
Warning: Ps = 0 is less than W.
Direct Newton iteration for .op point succeeded.

Date: Sun Jul 26 15:22:28 2020
Total elapsed time: 12.005 seconds.

tnom = 27
temp = 27
method = modified trap
totiter = 12439
traniter = 12426
tranpoints = 6112
accept = 5491
rejected = 621
matrix size = 1356
fillins = 2684
solver = Normal
Thread vector: 1860.6/865.3[8] 734.8/227.0[8] 229.4/148.5[8] 28.8/20.1[6]  2592/500
Matrix Compiler1: 319.35 KB object code size  298.6/190.2/[105.0]
Matrix Compiler2: 204.86 KB object code size  106.6/167.2/[32.9]

